<?xml version='1.0' encoding='utf-8'?>
<febio_spec version="4.0">
  <Module type="solid" />
  <Control>
    <analysis>STATIC</analysis>
    <time_steps>60</time_steps>
    <step_size>0.0166666666667</step_size>
    <plot_level>PLOT_MUST_POINTS</plot_level>
    <solver type="solid">
      <max_refs>25</max_refs>
      <diverge_reform>1</diverge_reform>
      <reform_each_time_step>1</reform_each_time_step>
      <dtol>0.001</dtol>
      <etol>0.01</etol>
      <rtol>0</rtol>
    </solver>
    <time_stepper>
      <dtmin>0.0001</dtmin>
      <dtmax>0.02</dtmax>
      <max_retries>12</max_retries>
      <opt_iter>10</opt_iter>
    </time_stepper>
  </Control>
  <Material>
    <material id="1" name="nylon" type="neo-Hookean">
      <E>0.24</E>
      <v>0.35</v>
    </material>
    <material id="2" name="backing_tpu" type="neo-Hookean">
      <E>48.4</E>
      <v>0.45</v>
    </material>
    <material id="3" name="conductive_tpu" type="neo-Hookean">
      <E>45</E>
      <v>0.45</v>
    </material>
  </Material>
  <Mesh>
    <Nodes name="coupon_nodes">
      <node id="1">0,0,0</node>
      <node id="2">5,0,0</node>
      <node id="3">5,2.5,0</node>
      <node id="4">0,2.5,0</node>
      <node id="5">0,0,0.4</node>
      <node id="6">5,0,0.4</node>
      <node id="7">5,2.5,0.4</node>
      <node id="8">0,2.5,0.4</node>
      <node id="9">10,0,0</node>
      <node id="10">10,2.5,0</node>
      <node id="11">10,0,0.4</node>
      <node id="12">10,2.5,0.4</node>
      <node id="13">11,0,0</node>
      <node id="14">11,2.5,0</node>
      <node id="15">11,0,0.4</node>
      <node id="16">11,2.5,0.4</node>
      <node id="17">12,0,0</node>
      <node id="18">12,2.5,0</node>
      <node id="19">12,0,0.4</node>
      <node id="20">12,2.5,0.4</node>
<!-- ... 8446 like lines cut -->
    </Nodes>
    <Elements type="hex8" name="nylon_substrate">
      <elem id="1">1,2,3,4,5,6,7,8</elem>
      <elem id="2">2,9,10,3,6,11,12,7</elem>
      <elem id="3">9,13,14,10,11,15,16,12</elem>
      <elem id="4">13,17,18,14,15,19,20,16</elem>
      <elem id="5">17,21,22,18,19,23,24,20</elem>
      <elem id="6">21,25,26,22,23,27,28,24</elem>
      <elem id="7">25,29,30,26,27,31,32,28</elem>
      <elem id="8">29,33,34,30,31,35,36,32</elem>
      <elem id="9">33,37,38,34,35,39,40,36</elem>
      <elem id="10">37,41,42,38,39,43,44,40</elem>
      <elem id="11">41,45,46,42,43,47,48,44</elem>
      <elem id="12">45,49,50,46,47,51,52,48</elem>
      <elem id="13">49,53,54,50,51,55,56,52</elem>
      <elem id="14">53,57,58,54,55,59,60,56</elem>
      <elem id="15">57,61,62,58,59,63,64,60</elem>
      <elem id="16">61,65,66,62,63,67,68,64</elem>
      <elem id="17">65,69,70,66,67,71,72,68</elem>
      <elem id="18">69,73,74,70,71,75,76,72</elem>
      <elem id="19">73,77,78,74,75,79,80,76</elem>
      <elem id="20">77,81,82,78,79,83,84,80</elem>
<!-- ... 5580 like lines cut -->
    </Elements>
    <Elements type="hex8" name="tpu_backing">
      <elem id="5601">6226,6227,6284,6283,7411,7412,7413,7414</elem>
      <elem id="5602">6227,6228,6285,6284,7412,7415,7416,7413</elem>
      <elem id="5603">6228,6229,6286,6285,7415,7417,7418,7416</elem>
      <elem id="5604">6229,6230,6287,6286,7417,7419,7420,7418</elem>
      <elem id="5605">6230,6231,6288,6287,7419,7421,7422,7420</elem>
      <elem id="5606">6231,6232,6289,6288,7421,7423,7424,7422</elem>
      <elem id="5607">6232,6233,6290,6289,7423,7425,7426,7424</elem>
      <elem id="5608">6233,6234,6291,6290,7425,7427,7428,7426</elem>
      <elem id="5609">6234,6235,6292,6291,7427,7429,7430,7428</elem>
      <elem id="5610">6235,6236,6293,6292,7429,7431,7432,7430</elem>
      <elem id="5611">6236,6237,6294,6293,7431,7433,7434,7432</elem>
      <elem id="5612">6237,6238,6295,6294,7433,7435,7436,7434</elem>
      <elem id="5613">6238,6239,6296,6295,7435,7437,7438,7436</elem>
      <elem id="5614">6239,6240,6297,6296,7437,7439,7440,7438</elem>
      <elem id="5615">6240,6241,6298,6297,7439,7441,7442,7440</elem>
      <elem id="5616">6241,6242,6299,6298,7441,7443,7444,7442</elem>
      <elem id="5617">6242,6243,6300,6299,7443,7445,7446,7444</elem>
      <elem id="5618">6243,6244,6301,6300,7445,7447,7448,7446</elem>
      <elem id="5619">6244,6245,6302,6301,7447,7449,7450,7448</elem>
      <elem id="5620">6245,6246,6303,6302,7449,7451,7452,7450</elem>
<!-- ... 460 like lines cut -->
    </Elements>
    <Elements type="hex8" name="conductive_tpu">
      <elem id="6081">7411,7412,7413,7414,7939,7940,7941,7942</elem>
      <elem id="6082">7412,7415,7416,7413,7940,7943,7944,7941</elem>
      <elem id="6083">7415,7417,7418,7416,7943,7945,7946,7944</elem>
      <elem id="6084">7417,7419,7420,7418,7945,7947,7948,7946</elem>
      <elem id="6085">7419,7421,7422,7420,7947,7949,7950,7948</elem>
      <elem id="6086">7421,7423,7424,7422,7949,7951,7952,7950</elem>
      <elem id="6087">7423,7425,7426,7424,7951,7953,7954,7952</elem>
      <elem id="6088">7425,7427,7428,7426,7953,7955,7956,7954</elem>
      <elem id="6089">7427,7429,7430,7428,7955,7957,7958,7956</elem>
      <elem id="6090">7429,7431,7432,7430,7957,7959,7960,7958</elem>
      <elem id="6091">7431,7433,7434,7432,7959,7961,7962,7960</elem>
      <elem id="6092">7433,7435,7436,7434,7961,7963,7964,7962</elem>
      <elem id="6093">7435,7437,7438,7436,7963,7965,7966,7964</elem>
      <elem id="6094">7437,7439,7440,7438,7965,7967,7968,7966</elem>
      <elem id="6095">7439,7441,7442,7440,7967,7969,7970,7968</elem>
      <elem id="6096">7441,7443,7444,7442,7969,7971,7972,7970</elem>
      <elem id="6097">7443,7445,7446,7444,7971,7973,7974,7972</elem>
      <elem id="6098">7445,7447,7448,7446,7973,7975,7976,7974</elem>
      <elem id="6099">7447,7449,7450,7448,7975,7977,7978,7976</elem>
      <elem id="6100">7449,7451,7452,7450,7977,7979,7980,7978</elem>
<!-- ... 460 like lines cut -->
    </Elements>
    <NodeSet name="conductive_gauge_nodes">7411,7412,7413,7414,7415,7416,7417,7418,7419,7420,7421,7422,7423,7424,7425,7426,7427,7428,7429,7430,7431,7432,7433,7434,7435,7436,7437,7438,7439,7440,7441,7442,7443,7444,7445,7446,7447,7448,7449,7450,7451,7452,7453,7454,7455,7456,7457,7458,7459,7460,7461,7462,7463,7464,7465,7466,7467,7468,7469,7470,7471,7472,7473,7474,7475,7476,7477,7478,7479,7480,7481,74
    <NodeSet name="fixed_end">1,4,5,8,230,232,344,346,458,460,572,574,686,688,800,802,914,916,1028,1030,1142,1144,1256,1258,1370,1372,1484,1486,1598,1600,1712,1714,1826,1828,1940,1942,2054,2056,2168,2170,2282,2284,2396,2398,2510,2512,2624,2626,2738,2740,2852,2854,2965,2968,3080,3137,3194,3251,3308,3365,3422,3479,3536,3593,3650,3707,3764,3821,3878,3935,3992,4049,4106,4163,4220,4277,4334,4391,4447,4
    <NodeSet name="loaded_end">225,226,227,228,341,342,455,456,569,570,683,684,797,798,911,912,1025,1026,1139,1140,1253,1254,1367,1368,1481,1482,1595,1596,1709,1710,1823,1824,1937,1938,2051,2052,2165,2166,2279,2280,2393,2394,2507,2508,2621,2622,2735,2736,2849,2850,2963,2964,3077,3078,3135,3192,3249,3306,3363,3420,3477,3534,3591,3648,3705,3762,3819,3876,3933,3990,4047,4104,4161,4218,4275,4332,4389,
  </Mesh>
  <MeshDomains>
    <SolidDomain name="nylon_substrate" mat="nylon" />
    <SolidDomain name="tpu_backing" mat="backing_tpu" />
    <SolidDomain name="conductive_tpu" mat="conductive_tpu" />
  </MeshDomains>
  <Boundary>
    <bc name="clamped_left" type="zero displacement" node_set="fixed_end">
      <x_dof>1</x_dof>
      <y_dof>1</y_dof>
      <z_dof>1</z_dof>
    </bc>
    <bc name="thirty_percent_extension" type="prescribed displacement" node_set="loaded_end">
      <dof>x</dof>
      <value lc="1">12</value>
      <relative>0</relative>
    </bc>
  </Boundary>
  <LoadData>
    <load_controller id="1" type="loadcurve">
      <interpolate>LINEAR</interpolate>
      <points>
        <point>0,0</point>
        <point>1,1</point>
      </points>
    </load_controller>
  </LoadData>
  <Output>
    <plotfile type="febio" file="results/controlled10pct_mesh_taper10mm_tip50pct_audit_coarse.xplt">
      <var type="displacement" />
      <var type="Lagrange strain" />
      <var type="stress" />
    </plotfile>
    <logfile file="results/controlled10pct_mesh_taper10mm_tip50pct_audit_coarse.log">
      <node_data data="x;y;z" name="conductive_gauge_coordinates" node_set="conductive_gauge_nodes" delim="," />
    </logfile>
  </Output>
</febio_spec>