<?xml version='1.0' encoding='utf-8'?>
<febio_spec version="4.0">
  <Module type="solid" />
  <Control>
    <analysis>STATIC</analysis>
    <time_steps>60</time_steps>
    <step_size>0.0166666666667</step_size>
    <plot_level>PLOT_MUST_POINTS</plot_level>
    <solver type="solid">
      <max_refs>25</max_refs>
      <diverge_reform>1</diverge_reform>
      <reform_each_time_step>1</reform_each_time_step>
      <dtol>0.001</dtol>
      <etol>0.01</etol>
      <rtol>0</rtol>
    </solver>
    <time_stepper>
      <dtmin>0.0001</dtmin>
      <dtmax>0.02</dtmax>
      <max_retries>12</max_retries>
      <opt_iter>10</opt_iter>
    </time_stepper>
  </Control>
  <Material>
    <material id="1" name="nylon" type="neo-Hookean">
      <E>0.24</E>
      <v>0.35</v>
    </material>
    <material id="2" name="backing_tpu" type="neo-Hookean">
      <E>48.4</E>
      <v>0.45</v>
    </material>
    <material id="3" name="conductive_tpu" type="neo-Hookean">
      <E>45</E>
      <v>0.45</v>
    </material>
  </Material>
  <Mesh>
    <Nodes name="coupon_nodes">
      <node id="1">0,0,0</node>
      <node id="2">2.5,0,0</node>
      <node id="3">2.5,1.25,0</node>
      <node id="4">0,1.25,0</node>
      <node id="5">0,0,0.26666667</node>
      <node id="6">2.5,0,0.26666667</node>
      <node id="7">2.5,1.25,0.26666667</node>
      <node id="8">0,1.25,0.26666667</node>
      <node id="9">5,0,0</node>
      <node id="10">5,1.25,0</node>
      <node id="11">5,0,0.26666667</node>
      <node id="12">5,1.25,0.26666667</node>
      <node id="13">7.5,0,0</node>
      <node id="14">7.5,1.25,0</node>
      <node id="15">7.5,0,0.26666667</node>
      <node id="16">7.5,1.25,0.26666667</node>
      <node id="17">10,0,0</node>
      <node id="18">10,1.25,0</node>
      <node id="19">10,0,0.26666667</node>
      <node id="20">10,1.25,0.26666667</node>
<!-- ... 44351 like lines cut -->
    </Nodes>
    <Elements type="hex8" name="nylon_substrate">
      <elem id="1">1,2,3,4,5,6,7,8</elem>
      <elem id="2">2,9,10,3,6,11,12,7</elem>
      <elem id="3">9,13,14,10,11,15,16,12</elem>
      <elem id="4">13,17,18,14,15,19,20,16</elem>
      <elem id="5">17,21,22,18,19,23,24,20</elem>
      <elem id="6">21,25,26,22,23,27,28,24</elem>
      <elem id="7">25,29,30,26,27,31,32,28</elem>
      <elem id="8">29,33,34,30,31,35,36,32</elem>
      <elem id="9">33,37,38,34,35,39,40,36</elem>
      <elem id="10">37,41,42,38,39,43,44,40</elem>
      <elem id="11">41,45,46,42,43,47,48,44</elem>
      <elem id="12">45,49,50,46,47,51,52,48</elem>
      <elem id="13">49,53,54,50,51,55,56,52</elem>
      <elem id="14">53,57,58,54,55,59,60,56</elem>
      <elem id="15">57,61,62,58,59,63,64,60</elem>
      <elem id="16">61,65,66,62,63,67,68,64</elem>
      <elem id="17">65,69,70,66,67,71,72,68</elem>
      <elem id="18">69,73,74,70,71,75,76,72</elem>
      <elem id="19">73,77,78,74,75,79,80,76</elem>
      <elem id="20">77,81,82,78,79,83,84,80</elem>
<!-- ... 33580 like lines cut -->
    </Elements>
    <Elements type="hex8" name="tpu_backing">
      <elem id="33601">35733,35734,35847,35846,40342,40343,40344,40345</elem>
      <elem id="33602">35734,35735,35848,35847,40343,40346,40347,40344</elem>
      <elem id="33603">35735,35736,35849,35848,40346,40348,40349,40347</elem>
      <elem id="33604">35736,35737,35850,35849,40348,40350,40351,40349</elem>
      <elem id="33605">35737,35738,35851,35850,40350,40352,40353,40351</elem>
      <elem id="33606">35738,35739,35852,35851,40352,40354,40355,40353</elem>
      <elem id="33607">35739,35740,35853,35852,40354,40356,40357,40355</elem>
      <elem id="33608">35740,35741,35854,35853,40356,40358,40359,40357</elem>
      <elem id="33609">35741,35742,35855,35854,40358,40360,40361,40359</elem>
      <elem id="33610">35742,35743,35856,35855,40360,40362,40363,40361</elem>
      <elem id="33611">35743,35744,35857,35856,40362,40364,40365,40363</elem>
      <elem id="33612">35744,35745,35858,35857,40364,40366,40367,40365</elem>
      <elem id="33613">35745,35746,35859,35858,40366,40368,40369,40367</elem>
      <elem id="33614">35746,35747,35860,35859,40368,40370,40371,40369</elem>
      <elem id="33615">35747,35748,35861,35860,40370,40372,40373,40371</elem>
      <elem id="33616">35748,35749,35862,35861,40372,40374,40375,40373</elem>
      <elem id="33617">35749,35750,35863,35862,40374,40376,40377,40375</elem>
      <elem id="33618">35750,35751,35864,35863,40376,40378,40379,40377</elem>
      <elem id="33619">35751,35752,35865,35864,40378,40380,40381,40379</elem>
      <elem id="33620">35752,35753,35866,35865,40380,40382,40383,40381</elem>
<!-- ... 1900 like lines cut -->
    </Elements>
    <Elements type="hex8" name="conductive_tpu">
      <elem id="35521">40342,40343,40344,40345,42357,42358,42359,42360</elem>
      <elem id="35522">40343,40346,40347,40344,42358,42361,42362,42359</elem>
      <elem id="35523">40346,40348,40349,40347,42361,42363,42364,42362</elem>
      <elem id="35524">40348,40350,40351,40349,42363,42365,42366,42364</elem>
      <elem id="35525">40350,40352,40353,40351,42365,42367,42368,42366</elem>
      <elem id="35526">40352,40354,40355,40353,42367,42369,42370,42368</elem>
      <elem id="35527">40354,40356,40357,40355,42369,42371,42372,42370</elem>
      <elem id="35528">40356,40358,40359,40357,42371,42373,42374,42372</elem>
      <elem id="35529">40358,40360,40361,40359,42373,42375,42376,42374</elem>
      <elem id="35530">40360,40362,40363,40361,42375,42377,42378,42376</elem>
      <elem id="35531">40362,40364,40365,40363,42377,42379,42380,42378</elem>
      <elem id="35532">40364,40366,40367,40365,42379,42381,42382,42380</elem>
      <elem id="35533">40366,40368,40369,40367,42381,42383,42384,42382</elem>
      <elem id="35534">40368,40370,40371,40369,42383,42385,42386,42384</elem>
      <elem id="35535">40370,40372,40373,40371,42385,42387,42388,42386</elem>
      <elem id="35536">40372,40374,40375,40373,42387,42389,42390,42388</elem>
      <elem id="35537">40374,40376,40377,40375,42389,42391,42392,42390</elem>
      <elem id="35538">40376,40378,40379,40377,42391,42393,42394,42392</elem>
      <elem id="35539">40378,40380,40381,40379,42393,42395,42396,42394</elem>
      <elem id="35540">40380,40382,40383,40381,42395,42397,42398,42396</elem>
<!-- ... 1900 like lines cut -->
    </Elements>
    <NodeSet name="conductive_gauge_nodes">40342,40343,40344,40345,40346,40347,40348,40349,40350,40351,40352,40353,40354,40355,40356,40357,40358,40359,40360,40361,40362,40363,40364,40365,40366,40367,40368,40369,40370,40371,40372,40373,40374,40375,40376,40377,40378,40379,40380,40381,40382,40383,40384,40385,40386,40387,40388,40389,40390,40391,40392,40393,40394,40395,40396,40397,40398,40399,40400,404
    <NodeSet name="fixed_end">1,4,5,8,454,456,680,682,906,908,1132,1134,1358,1360,1584,1586,1810,1812,2036,2038,2262,2264,2488,2490,2714,2716,2940,2942,3166,3168,3392,3394,3618,3620,3844,3846,4070,4072,4296,4298,4522,4524,4748,4750,4974,4976,5200,5202,5426,5428,5652,5654,5878,5880,6104,6106,6330,6332,6556,6558,6782,6784,7008,7010,7234,7236,7460,7462,7686,7688,7912,7914,8138,8140,8364,8366,8590,859
    <NodeSet name="loaded_end">449,450,451,452,677,678,903,904,1129,1130,1355,1356,1581,1582,1807,1808,2033,2034,2259,2260,2485,2486,2711,2712,2937,2938,3163,3164,3389,3390,3615,3616,3841,3842,4067,4068,4293,4294,4519,4520,4745,4746,4971,4972,5197,5198,5423,5424,5649,5650,5875,5876,6101,6102,6327,6328,6553,6554,6779,6780,7005,7006,7231,7232,7457,7458,7683,7684,7909,7910,8135,8136,8361,8362,8587,85
  </Mesh>
  <MeshDomains>
    <SolidDomain name="nylon_substrate" mat="nylon" />
    <SolidDomain name="tpu_backing" mat="backing_tpu" />
    <SolidDomain name="conductive_tpu" mat="conductive_tpu" />
  </MeshDomains>
  <Boundary>
    <bc name="clamped_left" type="zero displacement" node_set="fixed_end">
      <x_dof>1</x_dof>
      <y_dof>1</y_dof>
      <z_dof>1</z_dof>
    </bc>
    <bc name="thirty_percent_extension" type="prescribed displacement" node_set="loaded_end">
      <dof>x</dof>
      <value lc="1">12</value>
      <relative>0</relative>
    </bc>
  </Boundary>
  <LoadData>
    <load_controller id="1" type="loadcurve">
      <interpolate>LINEAR</interpolate>
      <points>
        <point>0,0</point>
        <point>1,1</point>
      </points>
    </load_controller>
  </LoadData>
  <Output>
    <plotfile type="febio" file="results/controlled10pct_mesh_taper10mm_tip50pct_audit_fine.xplt">
      <var type="displacement" />
      <var type="Lagrange strain" />
      <var type="stress" />
    </plotfile>
    <logfile file="results/controlled10pct_mesh_taper10mm_tip50pct_audit_fine.log">
      <node_data data="x;y;z" name="conductive_gauge_coordinates" node_set="conductive_gauge_nodes" delim="," />
    </logfile>
  </Output>
</febio_spec>