<?xml version='1.0' encoding='utf-8'?>
<febio_spec version="4.0">
  <Module type="solid" />
  <Control>
    <analysis>STATIC</analysis>
    <time_steps>20</time_steps>
    <step_size>0.05</step_size>
    <plot_level>PLOT_MUST_POINTS</plot_level>
    <solver type="solid">
      <max_refs>35</max_refs>
      <diverge_reform>1</diverge_reform>
      <reform_each_time_step>1</reform_each_time_step>
      <symmetric_stiffness>0</symmetric_stiffness>
      <dtol>0.02</dtol>
      <etol>0.0001</etol>
      <rtol>0.001</rtol>
    </solver>
    <time_stepper>
      <dtmin>1e-05</dtmin>
      <dtmax>0.05</dtmax>
      <max_retries>15</max_retries>
      <opt_iter>10</opt_iter>
    </time_stepper>
  </Control>
  <Material>
    <material id="1" name="textile_provisional" type="neo-Hookean">
      <E>1.6</E>
      <v>0.3</v>
    </material>
    <material id="2" name="torso_fixed" type="neo-Hookean">
      <E>0.8</E>
      <v>0.3</v>
    </material>
  </Material>
  <Mesh>
    <Nodes name="shirt_nodes">
      <node id="1">187.9,0,0</node>
      <node id="2">186.99521,16.1630264,0</node>
      <node id="3">184.289554,32.1703941,0</node>
      <node id="4">179.809089,47.8679433,0</node>
      <node id="5">173.596964,63.104498,0</node>
      <node id="6">165.713006,77.7333219,0</node>
      <node id="7">156.23314,91.6135314,0</node>
      <node id="8">145.248664,104.611453,0</node>
      <node id="9">132.865364,116.601908,0</node>
      <node id="10">119.202498,127.469424,0</node>
      <node id="11">104.391647,137.109339,0</node>
      <node id="12">88.5754468,145.428816,0</node>
      <node id="13">71.9062169,152.347735,0</node>
      <node id="14">54.5444909,157.799461,0</node>
      <node id="15">36.6574715,161.731493,0</node>
      <node id="16">18.4174207,164.105961,0</node>
      <node id="17">1.15055567e-14,164.9,0</node>
      <node id="18">-18.4174207,164.105961,0</node>
      <node id="19">-36.6574715,161.731493,0</node>
      <node id="20">-54.5444909,157.799461,0</node>
<!-- ... 1708 like lines cut -->
    </Nodes>
    <Nodes name="torso_nodes">
      <node id="1729">187.4,0,0</node>
      <node id="1730">186.497618,16.1140179,0</node>
      <node id="1731">183.799162,32.0728489,0</node>
      <node id="1732">179.330619,47.7228009,0</node>
      <node id="1733">173.135024,62.9131563,0</node>
      <node id="1734">165.272045,77.4976235,0</node>
      <node id="1735">155.817405,91.3357463,0</node>
      <node id="1736">144.862159,104.294256,0</node>
      <node id="1737">132.511811,116.248355,0</node>
      <node id="1738">118.885301,127.082919,0</node>
      <node id="1739">104.113862,136.693604,0</node>
      <node id="1740">88.3397485,144.987856,0</node>
      <node id="1741">71.7148752,151.885795,0</node>
      <node id="1742">54.3993485,157.320991,0</node>
      <node id="1743">36.5599263,161.2411,0</node>
      <node id="1744">18.3684121,163.608369,0</node>
      <node id="1745">1.14749405e-14,164.4,0</node>
      <node id="1746">-18.3684121,163.608369,0</node>
      <node id="1747">-36.5599263,161.2411,0</node>
      <node id="1748">-54.3993485,157.320991,0</node>
<!-- ... 1708 like lines cut -->
    </Nodes>
    <Elements type="quad4" name="shirt_back">
      <elem id="1">1,2,66,65</elem>
      <elem id="2">2,3,67,66</elem>
      <elem id="3">3,4,68,67</elem>
      <elem id="4">4,5,69,68</elem>
      <elem id="5">5,6,70,69</elem>
      <elem id="6">6,7,71,70</elem>
      <elem id="7">7,8,72,71</elem>
      <elem id="8">8,9,73,72</elem>
      <elem id="9">9,10,74,73</elem>
      <elem id="10">10,11,75,74</elem>
      <elem id="11">11,12,76,75</elem>
      <elem id="12">12,13,77,76</elem>
      <elem id="13">13,14,78,77</elem>
      <elem id="14">14,15,79,78</elem>
      <elem id="15">15,16,80,79</elem>
      <elem id="16">16,17,81,80</elem>
      <elem id="17">17,18,82,81</elem>
      <elem id="18">18,19,83,82</elem>
      <elem id="19">19,20,84,83</elem>
      <elem id="20">20,21,85,84</elem>
<!-- ... 812 like lines cut -->
    </Elements>
    <Elements type="quad4" name="shirt_front">
      <elem id="833">33,34,98,97</elem>
      <elem id="834">34,35,99,98</elem>
      <elem id="835">35,36,100,99</elem>
      <elem id="836">36,37,101,100</elem>
      <elem id="837">37,38,102,101</elem>
      <elem id="838">38,39,103,102</elem>
      <elem id="839">39,40,104,103</elem>
      <elem id="840">40,41,105,104</elem>
      <elem id="841">41,42,106,105</elem>
      <elem id="842">42,43,107,106</elem>
      <elem id="843">43,44,108,107</elem>
      <elem id="844">44,45,109,108</elem>
      <elem id="845">45,46,110,109</elem>
      <elem id="846">46,47,111,110</elem>
      <elem id="847">47,48,112,111</elem>
      <elem id="848">48,49,113,112</elem>
      <elem id="849">49,50,114,113</elem>
      <elem id="850">50,51,115,114</elem>
      <elem id="851">51,52,116,115</elem>
      <elem id="852">52,53,117,116</elem>
<!-- ... 812 like lines cut -->
    </Elements>
    <Elements type="quad4" name="torso_surface_elements">
      <elem id="1665">1729,1730,1794,1793</elem>
      <elem id="1666">1730,1731,1795,1794</elem>
      <elem id="1667">1731,1732,1796,1795</elem>
      <elem id="1668">1732,1733,1797,1796</elem>
      <elem id="1669">1733,1734,1798,1797</elem>
      <elem id="1670">1734,1735,1799,1798</elem>
      <elem id="1671">1735,1736,1800,1799</elem>
      <elem id="1672">1736,1737,1801,1800</elem>
      <elem id="1673">1737,1738,1802,1801</elem>
      <elem id="1674">1738,1739,1803,1802</elem>
      <elem id="1675">1739,1740,1804,1803</elem>
      <elem id="1676">1740,1741,1805,1804</elem>
      <elem id="1677">1741,1742,1806,1805</elem>
      <elem id="1678">1742,1743,1807,1806</elem>
      <elem id="1679">1743,1744,1808,1807</elem>
      <elem id="1680">1744,1745,1809,1808</elem>
      <elem id="1681">1745,1746,1810,1809</elem>
      <elem id="1682">1746,1747,1811,1810</elem>
      <elem id="1683">1747,1748,1812,1811</elem>
      <elem id="1684">1748,1749,1813,1812</elem>
<!-- ... 1644 like lines cut -->
    </Elements>
    <NodeSet name="shirt_top_ring">1665,1666,1667,1668,1669,1670,1671,1672,1673,1674,1675,1676,1677,1678,1679,1680,1681,1682,1683,1684,1685,1686,1687,1688,1689,1690,1691,1692,1693,1694,1695,1696,1697,1698,1699,1700,1701,1702,1703,1704,1705,1706,1707,1708,1709,1710,1711,1712,1713,1714,1715,1716,1717,1718,1719,1720,1721,1722,1723,1724,1725,1726,1727,1728</NodeSet>
    <NodeSet name="shirt_anchor_y">1665</NodeSet>
    <NodeSet name="shirt_anchor_x">1681</NodeSet>
    <NodeSet name="shirt_all_nodes">1,2,3,4,5,6,7,8,9,10,11,12,13,14,15,16,17,18,19,20,21,22,23,24,25,26,27,28,29,30,31,32,33,34,35,36,37,38,39,40,41,42,43,44,45,46,47,48,49,50,51,52,53,54,55,56,57,58,59,60,61,62,63,64,65,66,67,68,69,70,71,72,73,74,75,76,77,78,79,80,81,82,83,84,85,86,87,88,89,90,91,92,93,94,95,96,97,98,99,100,101,102,103,104,105,106,107,108,109,110,111,112,113,114,115,116,117,118,
    <NodeSet name="torso_all_nodes">1729,1730,1731,1732,1733,1734,1735,1736,1737,1738,1739,1740,1741,1742,1743,1744,1745,1746,1747,1748,1749,1750,1751,1752,1753,1754,1755,1756,1757,1758,1759,1760,1761,1762,1763,1764,1765,1766,1767,1768,1769,1770,1771,1772,1773,1774,1775,1776,1777,1778,1779,1780,1781,1782,1783,1784,1785,1786,1787,1788,1789,1790,1791,1792,1793,1794,1795,1796,1797,1798,1799,1800,1801
    <NodeSet name="torso_column_0">1729,1793,1857,1921,1985,2049,2113,2177,2241,2305,2369,2433,2497,2561,2625,2689,2753,2817,2881,2945,3009,3073,3137,3201,3265,3329,3393</NodeSet>
    <NodeSet name="torso_column_1">1730,1794,1858,1922,1986,2050,2114,2178,2242,2306,2370,2434,2498,2562,2626,2690,2754,2818,2882,2946,3010,3074,3138,3202,3266,3330,3394</NodeSet>
    <NodeSet name="torso_column_2">1731,1795,1859,1923,1987,2051,2115,2179,2243,2307,2371,2435,2499,2563,2627,2691,2755,2819,2883,2947,3011,3075,3139,3203,3267,3331,3395</NodeSet>
    <NodeSet name="torso_column_3">1732,1796,1860,1924,1988,2052,2116,2180,2244,2308,2372,2436,2500,2564,2628,2692,2756,2820,2884,2948,3012,3076,3140,3204,3268,3332,3396</NodeSet>
    <NodeSet name="torso_column_4">1733,1797,1861,1925,1989,2053,2117,2181,2245,2309,2373,2437,2501,2565,2629,2693,2757,2821,2885,2949,3013,3077,3141,3205,3269,3333,3397</NodeSet>
    <NodeSet name="torso_column_5">1734,1798,1862,1926,1990,2054,2118,2182,2246,2310,2374,2438,2502,2566,2630,2694,2758,2822,2886,2950,3014,3078,3142,3206,3270,3334,3398</NodeSet>
    <NodeSet name="torso_column_6">1735,1799,1863,1927,1991,2055,2119,2183,2247,2311,2375,2439,2503,2567,2631,2695,2759,2823,2887,2951,3015,3079,3143,3207,3271,3335,3399</NodeSet>
    <NodeSet name="torso_column_7">1736,1800,1864,1928,1992,2056,2120,2184,2248,2312,2376,2440,2504,2568,2632,2696,2760,2824,2888,2952,3016,3080,3144,3208,3272,3336,3400</NodeSet>
    <NodeSet name="torso_column_8">1737,1801,1865,1929,1993,2057,2121,2185,2249,2313,2377,2441,2505,2569,2633,2697,2761,2825,2889,2953,3017,3081,3145,3209,3273,3337,3401</NodeSet>
    <NodeSet name="torso_column_9">1738,1802,1866,1930,1994,2058,2122,2186,2250,2314,2378,2442,2506,2570,2634,2698,2762,2826,2890,2954,3018,3082,3146,3210,3274,3338,3402</NodeSet>
    <NodeSet name="torso_column_10">1739,1803,1867,1931,1995,2059,2123,2187,2251,2315,2379,2443,2507,2571,2635,2699,2763,2827,2891,2955,3019,3083,3147,3211,3275,3339,3403</NodeSet>
    <NodeSet name="torso_column_11">1740,1804,1868,1932,1996,2060,2124,2188,2252,2316,2380,2444,2508,2572,2636,2700,2764,2828,2892,2956,3020,3084,3148,3212,3276,3340,3404</NodeSet>
    <NodeSet name="torso_column_12">1741,1805,1869,1933,1997,2061,2125,2189,2253,2317,2381,2445,2509,2573,2637,2701,2765,2829,2893,2957,3021,3085,3149,3213,3277,3341,3405</NodeSet>
    <NodeSet name="torso_column_13">1742,1806,1870,1934,1998,2062,2126,2190,2254,2318,2382,2446,2510,2574,2638,2702,2766,2830,2894,2958,3022,3086,3150,3214,3278,3342,3406</NodeSet>
    <NodeSet name="torso_column_14">1743,1807,1871,1935,1999,2063,2127,2191,2255,2319,2383,2447,2511,2575,2639,2703,2767,2831,2895,2959,3023,3087,3151,3215,3279,3343,3407</NodeSet>
    <NodeSet name="torso_column_15">1744,1808,1872,1936,2000,2064,2128,2192,2256,2320,2384,2448,2512,2576,2640,2704,2768,2832,2896,2960,3024,3088,3152,3216,3280,3344,3408</NodeSet>
    <NodeSet name="torso_column_16">1745,1809,1873,1937,2001,2065,2129,2193,2257,2321,2385,2449,2513,2577,2641,2705,2769,2833,2897,2961,3025,3089,3153,3217,3281,3345,3409</NodeSet>
    <NodeSet name="torso_column_17">1746,1810,1874,1938,2002,2066,2130,2194,2258,2322,2386,2450,2514,2578,2642,2706,2770,2834,2898,2962,3026,3090,3154,3218,3282,3346,3410</NodeSet>
    <NodeSet name="torso_column_18">1747,1811,1875,1939,2003,2067,2131,2195,2259,2323,2387,2451,2515,2579,2643,2707,2771,2835,2899,2963,3027,3091,3155,3219,3283,3347,3411</NodeSet>
    <NodeSet name="torso_column_19">1748,1812,1876,1940,2004,2068,2132,2196,2260,2324,2388,2452,2516,2580,2644,2708,2772,2836,2900,2964,3028,3092,3156,3220,3284,3348,3412</NodeSet>
<!-- ... 44 like lines cut -->
    <ElementSet name="shirt_all">1,2,3,4,5,6,7,8,9,10,11,12,13,14,15,16,17,18,19,20,21,22,23,24,25,26,27,28,29,30,31,32,33,34,35,36,37,38,39,40,41,42,43,44,45,46,47,48,49,50,51,52,53,54,55,56,57,58,59,60,61,62,63,64,65,66,67,68,69,70,71,72,73,74,75,76,77,78,79,80,81,82,83,84,85,86,87,88,89,90,91,92,93,94,95,96,97,98,99,100,101,102,103,104,105,106,107,108,109,110,111,112,113,114,115,116,117,118,119
    <Surface name="shirt_on_torso_primary">
      <quad4 id="1">1,65,66,2</quad4>
      <quad4 id="2">2,66,67,3</quad4>
      <quad4 id="3">3,67,68,4</quad4>
      <quad4 id="4">4,68,69,5</quad4>
      <quad4 id="5">5,69,70,6</quad4>
      <quad4 id="6">6,70,71,7</quad4>
      <quad4 id="7">7,71,72,8</quad4>
      <quad4 id="8">8,72,73,9</quad4>
      <quad4 id="9">9,73,74,10</quad4>
      <quad4 id="10">10,74,75,11</quad4>
      <quad4 id="11">11,75,76,12</quad4>
      <quad4 id="12">12,76,77,13</quad4>
      <quad4 id="13">13,77,78,14</quad4>
      <quad4 id="14">14,78,79,15</quad4>
      <quad4 id="15">15,79,80,16</quad4>
      <quad4 id="16">16,80,81,17</quad4>
      <quad4 id="17">17,81,82,18</quad4>
      <quad4 id="18">18,82,83,19</quad4>
      <quad4 id="19">19,83,84,20</quad4>
      <quad4 id="20">20,84,85,21</quad4>
<!-- ... 1644 like lines cut -->
    </Surface>
    <Surface name="shirt_on_torso_secondary">
      <quad4 id="1">1729,1730,1794,1793</quad4>
      <quad4 id="2">1730,1731,1795,1794</quad4>
      <quad4 id="3">1731,1732,1796,1795</quad4>
      <quad4 id="4">1732,1733,1797,1796</quad4>
      <quad4 id="5">1733,1734,1798,1797</quad4>
      <quad4 id="6">1734,1735,1799,1798</quad4>
      <quad4 id="7">1735,1736,1800,1799</quad4>
      <quad4 id="8">1736,1737,1801,1800</quad4>
      <quad4 id="9">1737,1738,1802,1801</quad4>
      <quad4 id="10">1738,1739,1803,1802</quad4>
      <quad4 id="11">1739,1740,1804,1803</quad4>
      <quad4 id="12">1740,1741,1805,1804</quad4>
      <quad4 id="13">1741,1742,1806,1805</quad4>
      <quad4 id="14">1742,1743,1807,1806</quad4>
      <quad4 id="15">1743,1744,1808,1807</quad4>
      <quad4 id="16">1744,1745,1809,1808</quad4>
      <quad4 id="17">1745,1746,1810,1809</quad4>
      <quad4 id="18">1746,1747,1811,1810</quad4>
      <quad4 id="19">1747,1748,1812,1811</quad4>
      <quad4 id="20">1748,1749,1813,1812</quad4>
<!-- ... 1644 like lines cut -->
    </Surface>
    <Surface name="shirt_pressure_surface">
      <quad4 id="1">1,2,66,65</quad4>
      <quad4 id="2">2,3,67,66</quad4>
      <quad4 id="3">3,4,68,67</quad4>
      <quad4 id="4">4,5,69,68</quad4>
      <quad4 id="5">5,6,70,69</quad4>
      <quad4 id="6">6,7,71,70</quad4>
      <quad4 id="7">7,8,72,71</quad4>
      <quad4 id="8">8,9,73,72</quad4>
      <quad4 id="9">9,10,74,73</quad4>
      <quad4 id="10">10,11,75,74</quad4>
      <quad4 id="11">11,12,76,75</quad4>
      <quad4 id="12">12,13,77,76</quad4>
      <quad4 id="13">13,14,78,77</quad4>
      <quad4 id="14">14,15,79,78</quad4>
      <quad4 id="15">15,16,80,79</quad4>
      <quad4 id="16">16,17,81,80</quad4>
      <quad4 id="17">17,18,82,81</quad4>
      <quad4 id="18">18,19,83,82</quad4>
      <quad4 id="19">19,20,84,83</quad4>
      <quad4 id="20">20,21,85,84</quad4>
<!-- ... 1644 like lines cut -->
    </Surface>
    <SurfacePair name="shirt_torso_pair">
      <primary>shirt_on_torso_primary</primary>
      <secondary>shirt_on_torso_secondary</secondary>
    </SurfacePair>
  </Mesh>
  <MeshDomains>
    <ShellDomain name="shirt_front" mat="textile_provisional" type="elastic-shell">
      <shell_thickness>1.6</shell_thickness>
    </ShellDomain>
    <ShellDomain name="shirt_back" mat="textile_provisional" type="elastic-shell">
      <shell_thickness>1.6</shell_thickness>
    </ShellDomain>
    <ShellDomain name="torso_surface_elements" mat="torso_fixed" type="elastic-shell">
      <shell_thickness>1.0</shell_thickness>
    </ShellDomain>
  </MeshDomains>
  <Boundary>
    <bc name="support_top_vertical" type="zero displacement" node_set="shirt_top_ring">
      <z_dof>1</z_dof>
    </bc>
    <bc name="remove_y_translation" type="zero displacement" node_set="shirt_anchor_y">
      <y_dof>1</y_dof>
    </bc>
    <bc name="remove_x_translation" type="zero displacement" node_set="shirt_anchor_x">
      <x_dof>1</x_dof>
    </bc>
    <bc name="fixed_torso_axial" type="zero displacement" node_set="torso_all_nodes">
      <z_dof>1</z_dof>
    </bc>
    <bc name="expand_torso_x_0" type="prescribed displacement" node_set="torso_column_0">
      <dof>x</dof>
      <value lc="1">0.6</value>
    </bc>
    <bc name="expand_torso_y_0" type="prescribed displacement" node_set="torso_column_0">
      <dof>y</dof>
      <value lc="1">0</value>
    </bc>
    <bc name="expand_torso_x_1" type="prescribed displacement" node_set="torso_column_1">
      <dof>x</dof>
      <value lc="1">0.597110836003</value>
    </bc>
    <bc name="expand_torso_y_1" type="prescribed displacement" node_set="torso_column_1">
      <dof>y</dof>
      <value lc="1">0.0588102841977</value>
    </bc>
    <bc name="expand_torso_x_2" type="prescribed displacement" node_set="torso_column_2">
      <dof>x</dof>
      <value lc="1">0.588471168242</value>
    </bc>
    <bc name="expand_torso_y_2" type="prescribed displacement" node_set="torso_column_2">
      <dof>y</dof>
      <value lc="1">0.11705419321</value>
    </bc>
    <bc name="expand_torso_x_3" type="prescribed displacement" node_set="torso_column_3">
      <dof>x</dof>
      <value lc="1">0.574164201439</value>
    </bc>
    <bc name="expand_torso_y_3" type="prescribed displacement" node_set="torso_column_3">
      <dof>y</dof>
      <value lc="1">0.174170806353</value>
    </bc>
    <bc name="expand_torso_x_4" type="prescribed displacement" node_set="torso_column_4">
      <dof>x</dof>
      <value lc="1">0.554327719507</value>
    </bc>
    <bc name="expand_torso_y_4" type="prescribed displacement" node_set="torso_column_4">
      <dof>y</dof>
      <value lc="1">0.229610059419</value>
    </bc>
    <bc name="expand_torso_x_5" type="prescribed displacement" node_set="torso_column_5">
      <dof>x</dof>
      <value lc="1">0.529152758609</value>
    </bc>
    <bc name="expand_torso_y_5" type="prescribed displacement" node_set="torso_column_5">
      <dof>y</dof>
      <value lc="1">0.282838042096</value>
    </bc>
    <bc name="expand_torso_x_6" type="prescribed displacement" node_set="torso_column_6">
      <dof>x</dof>
      <value lc="1">0.498881767382</value>
    </bc>
    <bc name="expand_torso_y_6" type="prescribed displacement" node_set="torso_column_6">
      <dof>y</dof>
      <value lc="1">0.333342139812</value>
    </bc>
    <bc name="expand_torso_x_7" type="prescribed displacement" node_set="torso_column_7">
      <dof>x</dof>
      <value lc="1">0.463806272018</value>
    </bc>
    <bc name="expand_torso_y_7" type="prescribed displacement" node_set="torso_column_7">
      <dof>y</dof>
      <value lc="1">0.380635970498</value>
    </bc>
    <bc name="expand_torso_x_8" type="prescribed displacement" node_set="torso_column_8">
      <dof>x</dof>
      <value lc="1">0.424264068712</value>
    </bc>
    <bc name="expand_torso_y_8" type="prescribed displacement" node_set="torso_column_8">
      <dof>y</dof>
      <value lc="1">0.424264068712</value>
    </bc>
    <bc name="expand_torso_x_9" type="prescribed displacement" node_set="torso_column_9">
      <dof>x</dof>
      <value lc="1">0.380635970498</value>
    </bc>
    <bc name="expand_torso_y_9" type="prescribed displacement" node_set="torso_column_9">
      <dof>y</dof>
      <value lc="1">0.463806272018</value>
    </bc>
    <bc name="expand_torso_x_10" type="prescribed displacement" node_set="torso_column_10">
      <dof>x</dof>
      <value lc="1">0.333342139812</value>
    </bc>
    <bc name="expand_torso_y_10" type="prescribed displacement" node_set="torso_column_10">
      <dof>y</dof>
      <value lc="1">0.498881767382</value>
    </bc>
    <bc name="expand_torso_x_11" type="prescribed displacement" node_set="torso_column_11">
      <dof>x</dof>
      <value lc="1">0.282838042096</value>
    </bc>
    <bc name="expand_torso_y_11" type="prescribed displacement" node_set="torso_column_11">
      <dof>y</dof>
      <value lc="1">0.529152758609</value>
    </bc>
    <bc name="expand_torso_x_12" type="prescribed displacement" node_set="torso_column_12">
      <dof>x</dof>
      <value lc="1">0.229610059419</value>
    </bc>
    <bc name="expand_torso_y_12" type="prescribed displacement" node_set="torso_column_12">
      <dof>y</dof>
      <value lc="1">0.554327719507</value>
    </bc>
    <bc name="expand_torso_x_13" type="prescribed displacement" node_set="torso_column_13">
      <dof>x</dof>
      <value lc="1">0.174170806353</value>
    </bc>
    <bc name="expand_torso_y_13" type="prescribed displacement" node_set="torso_column_13">
      <dof>y</dof>
      <value lc="1">0.574164201439</value>
    </bc>
    <bc name="expand_torso_x_14" type="prescribed displacement" node_set="torso_column_14">
      <dof>x</dof>
      <value lc="1">0.11705419321</value>
    </bc>
    <bc name="expand_torso_y_14" type="prescribed displacement" node_set="torso_column_14">
      <dof>y</dof>
      <value lc="1">0.588471168242</value>
    </bc>
    <bc name="expand_torso_x_15" type="prescribed displacement" node_set="torso_column_15">
      <dof>x</dof>
      <value lc="1">0.0588102841977</value>
    </bc>
    <bc name="expand_torso_y_15" type="prescribed displacement" node_set="torso_column_15">
      <dof>y</dof>
      <value lc="1">0.597110836003</value>
    </bc>
    <bc name="expand_torso_x_16" type="prescribed displacement" node_set="torso_column_16">
      <dof>x</dof>
      <value lc="1">3.67394039744e-17</value>
    </bc>
    <bc name="expand_torso_y_16" type="prescribed displacement" node_set="torso_column_16">
      <dof>y</dof>
      <value lc="1">0.6</value>
    </bc>
    <bc name="expand_torso_x_17" type="prescribed displacement" node_set="torso_column_17">
      <dof>x</dof>
      <value lc="1">-0.0588102841977</value>
    </bc>
    <bc name="expand_torso_y_17" type="prescribed displacement" node_set="torso_column_17">
      <dof>y</dof>
      <value lc="1">0.597110836003</value>
    </bc>
    <bc name="expand_torso_x_18" type="prescribed displacement" node_set="torso_column_18">
      <dof>x</dof>
      <value lc="1">-0.11705419321</value>
    </bc>
    <bc name="expand_torso_y_18" type="prescribed displacement" node_set="torso_column_18">
      <dof>y</dof>
      <value lc="1">0.588471168242</value>
    </bc>
    <bc name="expand_torso_x_19" type="prescribed displacement" node_set="torso_column_19">
      <dof>x</dof>
      <value lc="1">-0.174170806353</value>
    </bc>
    <bc name="expand_torso_y_19" type="prescribed displacement" node_set="torso_column_19">
      <dof>y</dof>
      <value lc="1">0.574164201439</value>
    </bc>
    <bc name="expand_torso_x_20" type="prescribed displacement" node_set="torso_column_20">
      <dof>x</dof>
      <value lc="1">-0.229610059419</value>
    </bc>
    <bc name="expand_torso_y_20" type="prescribed displacement" node_set="torso_column_20">
      <dof>y</dof>
      <value lc="1">0.554327719507</value>
    </bc>
    <bc name="expand_torso_x_21" type="prescribed displacement" node_set="torso_column_21">
      <dof>x</dof>
      <value lc="1">-0.282838042096</value>
    </bc>
    <bc name="expand_torso_y_21" type="prescribed displacement" node_set="torso_column_21">
      <dof>y</dof>
      <value lc="1">0.529152758609</value>
    </bc>
    <bc name="expand_torso_x_22" type="prescribed displacement" node_set="torso_column_22">
      <dof>x</dof>
      <value lc="1">-0.333342139812</value>
    </bc>
    <bc name="expand_torso_y_22" type="prescribed displacement" node_set="torso_column_22">
      <dof>y</dof>
      <value lc="1">0.498881767382</value>
    </bc>
    <bc name="expand_torso_x_23" type="prescribed displacement" node_set="torso_column_23">
      <dof>x</dof>
      <value lc="1">-0.380635970498</value>
    </bc>
    <bc name="expand_torso_y_23" type="prescribed displacement" node_set="torso_column_23">
      <dof>y</dof>
      <value lc="1">0.463806272018</value>
    </bc>
    <bc name="expand_torso_x_24" type="prescribed displacement" node_set="torso_column_24">
      <dof>x</dof>
      <value lc="1">-0.424264068712</value>
    </bc>
    <bc name="expand_torso_y_24" type="prescribed displacement" node_set="torso_column_24">
      <dof>y</dof>
      <value lc="1">0.424264068712</value>
    </bc>
    <bc name="expand_torso_x_25" type="prescribed displacement" node_set="torso_column_25">
      <dof>x</dof>
      <value lc="1">-0.463806272018</value>
    </bc>
    <bc name="expand_torso_y_25" type="prescribed displacement" node_set="torso_column_25">
      <dof>y</dof>
      <value lc="1">0.380635970498</value>
    </bc>
    <bc name="expand_torso_x_26" type="prescribed displacement" node_set="torso_column_26">
      <dof>x</dof>
      <value lc="1">-0.498881767382</value>
    </bc>
    <bc name="expand_torso_y_26" type="prescribed displacement" node_set="torso_column_26">
      <dof>y</dof>
      <value lc="1">0.333342139812</value>
    </bc>
    <bc name="expand_torso_x_27" type="prescribed displacement" node_set="torso_column_27">
      <dof>x</dof>
      <value lc="1">-0.529152758609</value>
    </bc>
    <bc name="expand_torso_y_27" type="prescribed displacement" node_set="torso_column_27">
      <dof>y</dof>
      <value lc="1">0.282838042096</value>
    </bc>
    <bc name="expand_torso_x_28" type="prescribed displacement" node_set="torso_column_28">
      <dof>x</dof>
      <value lc="1">-0.554327719507</value>
    </bc>
    <bc name="expand_torso_y_28" type="prescribed displacement" node_set="torso_column_28">
      <dof>y</dof>
      <value lc="1">0.229610059419</value>
    </bc>
    <bc name="expand_torso_x_29" type="prescribed displacement" node_set="torso_column_29">
      <dof>x</dof>
      <value lc="1">-0.574164201439</value>
    </bc>
    <bc name="expand_torso_y_29" type="prescribed displacement" node_set="torso_column_29">
      <dof>y</dof>
      <value lc="1">0.174170806353</value>
    </bc>
    <bc name="expand_torso_x_30" type="prescribed displacement" node_set="torso_column_30">
      <dof>x</dof>
      <value lc="1">-0.588471168242</value>
    </bc>
    <bc name="expand_torso_y_30" type="prescribed displacement" node_set="torso_column_30">
      <dof>y</dof>
      <value lc="1">0.11705419321</value>
    </bc>
    <bc name="expand_torso_x_31" type="prescribed displacement" node_set="torso_column_31">
      <dof>x</dof>
      <value lc="1">-0.597110836003</value>
    </bc>
    <bc name="expand_torso_y_31" type="prescribed displacement" node_set="torso_column_31">
      <dof>y</dof>
      <value lc="1">0.0588102841977</value>
    </bc>
    <bc name="expand_torso_x_32" type="prescribed displacement" node_set="torso_column_32">
      <dof>x</dof>
      <value lc="1">-0.6</value>
    </bc>
    <bc name="expand_torso_y_32" type="prescribed displacement" node_set="torso_column_32">
      <dof>y</dof>
      <value lc="1">7.34788079488e-17</value>
    </bc>
    <bc name="expand_torso_x_33" type="prescribed displacement" node_set="torso_column_33">
      <dof>x</dof>
      <value lc="1">-0.597110836003</value>
    </bc>
    <bc name="expand_torso_y_33" type="prescribed displacement" node_set="torso_column_33">
      <dof>y</dof>
      <value lc="1">-0.0588102841977</value>
    </bc>
    <bc name="expand_torso_x_34" type="prescribed displacement" node_set="torso_column_34">
      <dof>x</dof>
      <value lc="1">-0.588471168242</value>
    </bc>
    <bc name="expand_torso_y_34" type="prescribed displacement" node_set="torso_column_34">
      <dof>y</dof>
      <value lc="1">-0.11705419321</value>
    </bc>
    <bc name="expand_torso_x_35" type="prescribed displacement" node_set="torso_column_35">
      <dof>x</dof>
      <value lc="1">-0.574164201439</value>
    </bc>
    <bc name="expand_torso_y_35" type="prescribed displacement" node_set="torso_column_35">
      <dof>y</dof>
      <value lc="1">-0.174170806353</value>
    </bc>
    <bc name="expand_torso_x_36" type="prescribed displacement" node_set="torso_column_36">
      <dof>x</dof>
      <value lc="1">-0.554327719507</value>
    </bc>
    <bc name="expand_torso_y_36" type="prescribed displacement" node_set="torso_column_36">
      <dof>y</dof>
      <value lc="1">-0.229610059419</value>
    </bc>
    <bc name="expand_torso_x_37" type="prescribed displacement" node_set="torso_column_37">
      <dof>x</dof>
      <value lc="1">-0.529152758609</value>
    </bc>
    <bc name="expand_torso_y_37" type="prescribed displacement" node_set="torso_column_37">
      <dof>y</dof>
      <value lc="1">-0.282838042096</value>
    </bc>
    <bc name="expand_torso_x_38" type="prescribed displacement" node_set="torso_column_38">
      <dof>x</dof>
      <value lc="1">-0.498881767382</value>
    </bc>
    <bc name="expand_torso_y_38" type="prescribed displacement" node_set="torso_column_38">
      <dof>y</dof>
      <value lc="1">-0.333342139812</value>
    </bc>
    <bc name="expand_torso_x_39" type="prescribed displacement" node_set="torso_column_39">
      <dof>x</dof>
      <value lc="1">-0.463806272018</value>
    </bc>
    <bc name="expand_torso_y_39" type="prescribed displacement" node_set="torso_column_39">
      <dof>y</dof>
      <value lc="1">-0.380635970498</value>
    </bc>
    <bc name="expand_torso_x_40" type="prescribed displacement" node_set="torso_column_40">
      <dof>x</dof>
      <value lc="1">-0.424264068712</value>
    </bc>
    <bc name="expand_torso_y_40" type="prescribed displacement" node_set="torso_column_40">
      <dof>y</dof>
      <value lc="1">-0.424264068712</value>
    </bc>
    <bc name="expand_torso_x_41" type="prescribed displacement" node_set="torso_column_41">
      <dof>x</dof>
      <value lc="1">-0.380635970498</value>
    </bc>
    <bc name="expand_torso_y_41" type="prescribed displacement" node_set="torso_column_41">
      <dof>y</dof>
      <value lc="1">-0.463806272018</value>
    </bc>
    <bc name="expand_torso_x_42" type="prescribed displacement" node_set="torso_column_42">
      <dof>x</dof>
      <value lc="1">-0.333342139812</value>
    </bc>
    <bc name="expand_torso_y_42" type="prescribed displacement" node_set="torso_column_42">
      <dof>y</dof>
      <value lc="1">-0.498881767382</value>
    </bc>
    <bc name="expand_torso_x_43" type="prescribed displacement" node_set="torso_column_43">
      <dof>x</dof>
      <value lc="1">-0.282838042096</value>
    </bc>
    <bc name="expand_torso_y_43" type="prescribed displacement" node_set="torso_column_43">
      <dof>y</dof>
      <value lc="1">-0.529152758609</value>
    </bc>
    <bc name="expand_torso_x_44" type="prescribed displacement" node_set="torso_column_44">
      <dof>x</dof>
      <value lc="1">-0.229610059419</value>
    </bc>
    <bc name="expand_torso_y_44" type="prescribed displacement" node_set="torso_column_44">
      <dof>y</dof>
      <value lc="1">-0.554327719507</value>
    </bc>
    <bc name="expand_torso_x_45" type="prescribed displacement" node_set="torso_column_45">
      <dof>x</dof>
      <value lc="1">-0.174170806353</value>
    </bc>
    <bc name="expand_torso_y_45" type="prescribed displacement" node_set="torso_column_45">
      <dof>y</dof>
      <value lc="1">-0.574164201439</value>
    </bc>
    <bc name="expand_torso_x_46" type="prescribed displacement" node_set="torso_column_46">
      <dof>x</dof>
      <value lc="1">-0.11705419321</value>
    </bc>
    <bc name="expand_torso_y_46" type="prescribed displacement" node_set="torso_column_46">
      <dof>y</dof>
      <value lc="1">-0.588471168242</value>
    </bc>
    <bc name="expand_torso_x_47" type="prescribed displacement" node_set="torso_column_47">
      <dof>x</dof>
      <value lc="1">-0.0588102841977</value>
    </bc>
    <bc name="expand_torso_y_47" type="prescribed displacement" node_set="torso_column_47">
      <dof>y</dof>
      <value lc="1">-0.597110836003</value>
    </bc>
    <bc name="expand_torso_x_48" type="prescribed displacement" node_set="torso_column_48">
      <dof>x</dof>
      <value lc="1">-1.10218211923e-16</value>
    </bc>
    <bc name="expand_torso_y_48" type="prescribed displacement" node_set="torso_column_48">
      <dof>y</dof>
      <value lc="1">-0.6</value>
    </bc>
    <bc name="expand_torso_x_49" type="prescribed displacement" node_set="torso_column_49">
      <dof>x</dof>
      <value lc="1">0.0588102841977</value>
    </bc>
    <bc name="expand_torso_y_49" type="prescribed displacement" node_set="torso_column_49">
      <dof>y</dof>
      <value lc="1">-0.597110836003</value>
    </bc>
    <bc name="expand_torso_x_50" type="prescribed displacement" node_set="torso_column_50">
      <dof>x</dof>
      <value lc="1">0.11705419321</value>
    </bc>
    <bc name="expand_torso_y_50" type="prescribed displacement" node_set="torso_column_50">
      <dof>y</dof>
      <value lc="1">-0.588471168242</value>
    </bc>
    <bc name="expand_torso_x_51" type="prescribed displacement" node_set="torso_column_51">
      <dof>x</dof>
      <value lc="1">0.174170806353</value>
    </bc>
    <bc name="expand_torso_y_51" type="prescribed displacement" node_set="torso_column_51">
      <dof>y</dof>
      <value lc="1">-0.574164201439</value>
    </bc>
    <bc name="expand_torso_x_52" type="prescribed displacement" node_set="torso_column_52">
      <dof>x</dof>
      <value lc="1">0.229610059419</value>
    </bc>
    <bc name="expand_torso_y_52" type="prescribed displacement" node_set="torso_column_52">
      <dof>y</dof>
      <value lc="1">-0.554327719507</value>
    </bc>
    <bc name="expand_torso_x_53" type="prescribed displacement" node_set="torso_column_53">
      <dof>x</dof>
      <value lc="1">0.282838042096</value>
    </bc>
    <bc name="expand_torso_y_53" type="prescribed displacement" node_set="torso_column_53">
      <dof>y</dof>
      <value lc="1">-0.529152758609</value>
    </bc>
    <bc name="expand_torso_x_54" type="prescribed displacement" node_set="torso_column_54">
      <dof>x</dof>
      <value lc="1">0.333342139812</value>
    </bc>
    <bc name="expand_torso_y_54" type="prescribed displacement" node_set="torso_column_54">
      <dof>y</dof>
      <value lc="1">-0.498881767382</value>
    </bc>
    <bc name="expand_torso_x_55" type="prescribed displacement" node_set="torso_column_55">
      <dof>x</dof>
      <value lc="1">0.380635970498</value>
    </bc>
    <bc name="expand_torso_y_55" type="prescribed displacement" node_set="torso_column_55">
      <dof>y</dof>
      <value lc="1">-0.463806272018</value>
    </bc>
    <bc name="expand_torso_x_56" type="prescribed displacement" node_set="torso_column_56">
      <dof>x</dof>
      <value lc="1">0.424264068712</value>
    </bc>
    <bc name="expand_torso_y_56" type="prescribed displacement" node_set="torso_column_56">
      <dof>y</dof>
      <value lc="1">-0.424264068712</value>
    </bc>
    <bc name="expand_torso_x_57" type="prescribed displacement" node_set="torso_column_57">
      <dof>x</dof>
      <value lc="1">0.463806272018</value>
    </bc>
    <bc name="expand_torso_y_57" type="prescribed displacement" node_set="torso_column_57">
      <dof>y</dof>
      <value lc="1">-0.380635970498</value>
    </bc>
    <bc name="expand_torso_x_58" type="prescribed displacement" node_set="torso_column_58">
      <dof>x</dof>
      <value lc="1">0.498881767382</value>
    </bc>
    <bc name="expand_torso_y_58" type="prescribed displacement" node_set="torso_column_58">
      <dof>y</dof>
      <value lc="1">-0.333342139812</value>
    </bc>
    <bc name="expand_torso_x_59" type="prescribed displacement" node_set="torso_column_59">
      <dof>x</dof>
      <value lc="1">0.529152758609</value>
    </bc>
    <bc name="expand_torso_y_59" type="prescribed displacement" node_set="torso_column_59">
      <dof>y</dof>
      <value lc="1">-0.282838042096</value>
    </bc>
    <bc name="expand_torso_x_60" type="prescribed displacement" node_set="torso_column_60">
      <dof>x</dof>
      <value lc="1">0.554327719507</value>
    </bc>
    <bc name="expand_torso_y_60" type="prescribed displacement" node_set="torso_column_60">
      <dof>y</dof>
      <value lc="1">-0.229610059419</value>
    </bc>
    <bc name="expand_torso_x_61" type="prescribed displacement" node_set="torso_column_61">
      <dof>x</dof>
      <value lc="1">0.574164201439</value>
    </bc>
    <bc name="expand_torso_y_61" type="prescribed displacement" node_set="torso_column_61">
      <dof>y</dof>
      <value lc="1">-0.174170806353</value>
    </bc>
    <bc name="expand_torso_x_62" type="prescribed displacement" node_set="torso_column_62">
      <dof>x</dof>
      <value lc="1">0.588471168242</value>
    </bc>
    <bc name="expand_torso_y_62" type="prescribed displacement" node_set="torso_column_62">
      <dof>y</dof>
      <value lc="1">-0.11705419321</value>
    </bc>
    <bc name="expand_torso_x_63" type="prescribed displacement" node_set="torso_column_63">
      <dof>x</dof>
      <value lc="1">0.597110836003</value>
    </bc>
    <bc name="expand_torso_y_63" type="prescribed displacement" node_set="torso_column_63">
      <dof>y</dof>
      <value lc="1">-0.0588102841977</value>
    </bc>
  </Boundary>
  <Contact>
    <contact name="shirt_on_torso" type="sliding-facet-on-facet" surface_pair="shirt_torso_pair">
      <auto_penalty>0</auto_penalty>
      <penalty>0.001</penalty>
      <two_pass>0</two_pass>
      <laugon>1</laugon>
      <tolerance>0.1</tolerance>
      <gaptol>0.01</gaptol>
      <minaug>1</minaug>
      <maxaug>5</maxaug>
      <search_radius>20.0</search_radius>
      <search_tol>0.1</search_tol>
    </contact>
  </Contact>
  <LoadData>
    <load_controller id="1" type="loadcurve">
      <interpolate>LINEAR</interpolate>
      <points>
        <pt>0,0</pt>
        <pt>1,1</pt>
      </points>
    </load_controller>
  </LoadData>
  <Output>
    <plotfile type="febio" file="results/contact_sensitivity_garment_E_high_reference.xplt">
      <var type="displacement" />
      <var type="stress" />
      <var type="Lagrange strain" />
      <var type="shell thickness" />
      <var type="contact gap" />
      <var type="contact pressure" />
    </plotfile>
    <logfile file="results/contact_sensitivity_garment_E_high_reference.log">
      <node_data data="x;y;z" name="shirt_final_coordinates" node_set="shirt_all_nodes" delim="," />
      <face_data data="contact gap;contact pressure" name="shirt_contact_data" surface="shirt_on_torso_primary" delim="," />
    </logfile>
  </Output>
</febio_spec>