<?xml version='1.0' encoding='utf-8'?>
<febio_spec version="4.0">
  <Module type="solid" />
  <Control>
    <analysis>STATIC</analysis>
    <time_steps>60</time_steps>
    <step_size>0.0166666666667</step_size>
    <plot_level>PLOT_MUST_POINTS</plot_level>
    <solver type="solid">
      <max_refs>25</max_refs>
      <diverge_reform>1</diverge_reform>
      <reform_each_time_step>1</reform_each_time_step>
      <dtol>0.001</dtol>
      <etol>0.01</etol>
      <rtol>0</rtol>
    </solver>
    <time_stepper>
      <dtmin>0.0001</dtmin>
      <dtmax>0.02</dtmax>
      <max_retries>12</max_retries>
      <opt_iter>10</opt_iter>
    </time_stepper>
  </Control>
  <Material>
    <material id="1" name="nylon" type="neo-Hookean">
      <E>0.24</E>
      <v>0.35</v>
    </material>
    <material id="2" name="backing_tpu" type="neo-Hookean">
      <E>48.4</E>
      <v>0.45</v>
    </material>
    <material id="3" name="conductive_tpu" type="neo-Hookean">
      <E>45</E>
      <v>0.45</v>
    </material>
  </Material>
  <Mesh>
    <Nodes name="coupon_nodes">
      <node id="1">0,0,0</node>
      <node id="2">3.3333333,0,0</node>
      <node id="3">3.3333333,1.7857143,0</node>
      <node id="4">0,1.7857143,0</node>
      <node id="5">0,0,0.32</node>
      <node id="6">3.3333333,0,0.32</node>
      <node id="7">3.3333333,1.7857143,0.32</node>
      <node id="8">0,1.7857143,0.32</node>
      <node id="9">6.6666667,0,0</node>
      <node id="10">6.6666667,1.7857143,0</node>
      <node id="11">6.6666667,0,0.32</node>
      <node id="12">6.6666667,1.7857143,0.32</node>
      <node id="13">10,0,0</node>
      <node id="14">10,1.7857143,0</node>
      <node id="15">10,0,0.32</node>
      <node id="16">10,1.7857143,0.32</node>
      <node id="17">10.714286,0,0</node>
      <node id="18">10.714286,1.7857143,0</node>
      <node id="19">10.714286,0,0.32</node>
      <node id="20">10.714286,1.7857143,0.32</node>
<!-- ... 18460 like lines cut -->
    </Nodes>
    <Elements type="hex8" name="nylon_substrate">
      <elem id="1">1,2,3,4,5,6,7,8</elem>
      <elem id="2">2,9,10,3,6,11,12,7</elem>
      <elem id="3">9,13,14,10,11,15,16,12</elem>
      <elem id="4">13,17,18,14,15,19,20,16</elem>
      <elem id="5">17,21,22,18,19,23,24,20</elem>
      <elem id="6">21,25,26,22,23,27,28,24</elem>
      <elem id="7">25,29,30,26,27,31,32,28</elem>
      <elem id="8">29,33,34,30,31,35,36,32</elem>
      <elem id="9">33,37,38,34,35,39,40,36</elem>
      <elem id="10">37,41,42,38,39,43,44,40</elem>
      <elem id="11">41,45,46,42,43,47,48,44</elem>
      <elem id="12">45,49,50,46,47,51,52,48</elem>
      <elem id="13">49,53,54,50,51,55,56,52</elem>
      <elem id="14">53,57,58,54,55,59,60,56</elem>
      <elem id="15">57,61,62,58,59,63,64,60</elem>
      <elem id="16">61,65,66,62,63,67,68,64</elem>
      <elem id="17">65,69,70,66,67,71,72,68</elem>
      <elem id="18">69,73,74,70,71,75,76,72</elem>
      <elem id="19">73,77,78,74,75,79,80,76</elem>
      <elem id="20">77,81,82,78,79,83,84,80</elem>
<!-- ... 13240 like lines cut -->
    </Elements>
    <Elements type="hex8" name="tpu_backing">
      <elem id="13261">14396,14397,14476,14475,16591,16592,16593,16594</elem>
      <elem id="13262">14397,14398,14477,14476,16592,16595,16596,16593</elem>
      <elem id="13263">14398,14399,14478,14477,16595,16597,16598,16596</elem>
      <elem id="13264">14399,14400,14479,14478,16597,16599,16600,16598</elem>
      <elem id="13265">14400,14401,14480,14479,16599,16601,16602,16600</elem>
      <elem id="13266">14401,14402,14481,14480,16601,16603,16604,16602</elem>
      <elem id="13267">14402,14403,14482,14481,16603,16605,16606,16604</elem>
      <elem id="13268">14403,14404,14483,14482,16605,16607,16608,16606</elem>
      <elem id="13269">14404,14405,14484,14483,16607,16609,16610,16608</elem>
      <elem id="13270">14405,14406,14485,14484,16609,16611,16612,16610</elem>
      <elem id="13271">14406,14407,14486,14485,16611,16613,16614,16612</elem>
      <elem id="13272">14407,14408,14487,14486,16613,16615,16616,16614</elem>
      <elem id="13273">14408,14409,14488,14487,16615,16617,16618,16616</elem>
      <elem id="13274">14409,14410,14489,14488,16617,16619,16620,16618</elem>
      <elem id="13275">14410,14411,14490,14489,16619,16621,16622,16620</elem>
      <elem id="13276">14411,14412,14491,14490,16621,16623,16624,16622</elem>
      <elem id="13277">14412,14413,14492,14491,16623,16625,16626,16624</elem>
      <elem id="13278">14413,14414,14493,14492,16625,16627,16628,16626</elem>
      <elem id="13279">14414,14415,14494,14493,16627,16629,16630,16628</elem>
      <elem id="13280">14415,14416,14495,14494,16629,16631,16632,16630</elem>
<!-- ... 860 like lines cut -->
    </Elements>
    <Elements type="hex8" name="conductive_tpu">
      <elem id="14141">16591,16592,16593,16594,17536,17537,17538,17539</elem>
      <elem id="14142">16592,16595,16596,16593,17537,17540,17541,17538</elem>
      <elem id="14143">16595,16597,16598,16596,17540,17542,17543,17541</elem>
      <elem id="14144">16597,16599,16600,16598,17542,17544,17545,17543</elem>
      <elem id="14145">16599,16601,16602,16600,17544,17546,17547,17545</elem>
      <elem id="14146">16601,16603,16604,16602,17546,17548,17549,17547</elem>
      <elem id="14147">16603,16605,16606,16604,17548,17550,17551,17549</elem>
      <elem id="14148">16605,16607,16608,16606,17550,17552,17553,17551</elem>
      <elem id="14149">16607,16609,16610,16608,17552,17554,17555,17553</elem>
      <elem id="14150">16609,16611,16612,16610,17554,17556,17557,17555</elem>
      <elem id="14151">16611,16613,16614,16612,17556,17558,17559,17557</elem>
      <elem id="14152">16613,16615,16616,16614,17558,17560,17561,17559</elem>
      <elem id="14153">16615,16617,16618,16616,17560,17562,17563,17561</elem>
      <elem id="14154">16617,16619,16620,16618,17562,17564,17565,17563</elem>
      <elem id="14155">16619,16621,16622,16620,17564,17566,17567,17565</elem>
      <elem id="14156">16621,16623,16624,16622,17566,17568,17569,17567</elem>
      <elem id="14157">16623,16625,16626,16624,17568,17570,17571,17569</elem>
      <elem id="14158">16625,16627,16628,16626,17570,17572,17573,17571</elem>
      <elem id="14159">16627,16629,16630,16628,17572,17574,17575,17573</elem>
      <elem id="14160">16629,16631,16632,16630,17574,17576,17577,17575</elem>
<!-- ... 860 like lines cut -->
    </Elements>
    <NodeSet name="conductive_gauge_nodes">16591,16592,16593,16594,16595,16596,16597,16598,16599,16600,16601,16602,16603,16604,16605,16606,16607,16608,16609,16610,16611,16612,16613,16614,16615,16616,16617,16618,16619,16620,16621,16622,16623,16624,16625,16626,16627,16628,16629,16630,16631,16632,16633,16634,16635,16636,16637,16638,16639,16640,16641,16642,16643,16644,16645,16646,16647,16648,16649,166
    <NodeSet name="fixed_end">1,4,5,8,318,320,476,478,634,636,792,794,950,952,1108,1110,1266,1268,1424,1426,1582,1584,1740,1742,1898,1900,2056,2058,2214,2216,2372,2374,2530,2532,2688,2690,2846,2848,3004,3006,3162,3164,3320,3322,3478,3480,3636,3638,3794,3796,3952,3954,4110,4112,4268,4270,4426,4428,4584,4586,4742,4744,4900,4902,5058,5060,5216,5218,5374,5376,5531,5534,5690,5769,5848,5927,6006,6085,61
    <NodeSet name="loaded_end">313,314,315,316,473,474,631,632,789,790,947,948,1105,1106,1263,1264,1421,1422,1579,1580,1737,1738,1895,1896,2053,2054,2211,2212,2369,2370,2527,2528,2685,2686,2843,2844,3001,3002,3159,3160,3317,3318,3475,3476,3633,3634,3791,3792,3949,3950,4107,4108,4265,4266,4423,4424,4581,4582,4739,4740,4897,4898,5055,5056,5213,5214,5371,5372,5529,5530,5687,5688,5767,5846,5925,6004,6
  </Mesh>
  <MeshDomains>
    <SolidDomain name="nylon_substrate" mat="nylon" />
    <SolidDomain name="tpu_backing" mat="backing_tpu" />
    <SolidDomain name="conductive_tpu" mat="conductive_tpu" />
  </MeshDomains>
  <Boundary>
    <bc name="clamped_left" type="zero displacement" node_set="fixed_end">
      <x_dof>1</x_dof>
      <y_dof>1</y_dof>
      <z_dof>1</z_dof>
    </bc>
    <bc name="thirty_percent_extension" type="prescribed displacement" node_set="loaded_end">
      <dof>x</dof>
      <value lc="1">12</value>
      <relative>0</relative>
    </bc>
  </Boundary>
  <LoadData>
    <load_controller id="1" type="loadcurve">
      <interpolate>LINEAR</interpolate>
      <points>
        <point>0,0</point>
        <point>1,1</point>
      </points>
    </load_controller>
  </LoadData>
  <Output>
    <plotfile type="febio" file="results/controlled10pct_mesh_taper10mm_tip50pct_audit_medium.xplt">
      <var type="displacement" />
      <var type="Lagrange strain" />
      <var type="stress" />
    </plotfile>
    <logfile file="results/controlled10pct_mesh_taper10mm_tip50pct_audit_medium.log">
      <node_data data="x;y;z" name="conductive_gauge_coordinates" node_set="conductive_gauge_nodes" delim="," />
    </logfile>
  </Output>
</febio_spec>