<?xml version='1.0' encoding='utf-8'?>
<febio_spec version="4.0">
  <Module type="solid" />
  <Control>
    <analysis>STATIC</analysis>
    <time_steps>30</time_steps>
    <step_size>0.0333333333333</step_size>
    <plot_level>PLOT_MUST_POINTS</plot_level>
    <solver type="solid">
      <max_refs>25</max_refs>
      <diverge_reform>1</diverge_reform>
      <reform_each_time_step>1</reform_each_time_step>
      <dtol>0.001</dtol>
      <etol>0.01</etol>
      <rtol>0</rtol>
    </solver>
    <time_stepper>
      <dtmin>0.0001</dtmin>
      <dtmax>0.05</dtmax>
      <max_retries>12</max_retries>
      <opt_iter>10</opt_iter>
    </time_stepper>
  </Control>
  <Material>
    <material id="1" name="nylon_provisional" type="neo-Hookean">
      <E>5</E>
      <v>0.45</v>
    </material>
    <material id="2" name="backing_tpu_provisional" type="neo-Hookean">
      <E>8</E>
      <v>0.45</v>
    </material>
    <material id="3" name="conductive_tpu_provisional" type="neo-Hookean">
      <E>15</E>
      <v>0.45</v>
    </material>
  </Material>
  <Mesh>
    <Nodes name="coupon_nodes">
      <node id="1">0,0,0</node>
      <node id="2">2.5,0,0</node>
      <node id="3">2.5,1.25,0</node>
      <node id="4">0,1.25,0</node>
      <node id="5">0,0,0.26666667</node>
      <node id="6">2.5,0,0.26666667</node>
      <node id="7">2.5,1.25,0.26666667</node>
      <node id="8">0,1.25,0.26666667</node>
      <node id="9">5,0,0</node>
      <node id="10">5,1.25,0</node>
      <node id="11">5,0,0.26666667</node>
      <node id="12">5,1.25,0.26666667</node>
      <node id="13">7.5,0,0</node>
      <node id="14">7.5,1.25,0</node>
      <node id="15">7.5,0,0.26666667</node>
      <node id="16">7.5,1.25,0.26666667</node>
      <node id="17">10,0,0</node>
      <node id="18">10,1.25,0</node>
      <node id="19">10,0,0.26666667</node>
      <node id="20">10,1.25,0.26666667</node>
<!-- ... 13873 like lines cut -->
    </Nodes>
    <Elements type="hex8" name="nylon_substrate">
      <elem id="1">1,2,3,4,5,6,7,8</elem>
      <elem id="2">2,9,10,3,6,11,12,7</elem>
      <elem id="3">9,13,14,10,11,15,16,12</elem>
      <elem id="4">13,17,18,14,15,19,20,16</elem>
      <elem id="5">17,21,22,18,19,23,24,20</elem>
      <elem id="6">21,25,26,22,23,27,28,24</elem>
      <elem id="7">25,29,30,26,27,31,32,28</elem>
      <elem id="8">29,33,34,30,31,35,36,32</elem>
      <elem id="9">33,37,38,34,35,39,40,36</elem>
      <elem id="10">37,41,42,38,39,43,44,40</elem>
      <elem id="11">41,45,46,42,43,47,48,44</elem>
      <elem id="12">45,49,50,46,47,51,52,48</elem>
      <elem id="13">49,53,54,50,51,55,56,52</elem>
      <elem id="14">53,57,58,54,55,59,60,56</elem>
      <elem id="15">57,61,62,58,59,63,64,60</elem>
      <elem id="16">61,65,66,62,63,67,68,64</elem>
      <elem id="17">65,69,70,66,67,71,72,68</elem>
      <elem id="18">69,73,74,70,71,75,76,72</elem>
      <elem id="19">73,77,78,74,75,79,80,76</elem>
      <elem id="20">77,81,82,78,79,83,84,80</elem>
<!-- ... 9196 like lines cut -->
    </Elements>
    <Elements type="hex8" name="tpu_backing">
      <elem id="9217">10201,10202,10251,10250,11320,11321,11322,11323</elem>
      <elem id="9218">10202,10203,10252,10251,11321,11324,11325,11322</elem>
      <elem id="9219">10203,10204,10253,10252,11324,11326,11327,11325</elem>
      <elem id="9220">10204,10205,10254,10253,11326,11328,11329,11327</elem>
      <elem id="9221">10205,10206,10255,10254,11328,11330,11331,11329</elem>
      <elem id="9222">10206,10207,10256,10255,11330,11332,11333,11331</elem>
      <elem id="9223">10207,10208,10257,10256,11332,11334,11335,11333</elem>
      <elem id="9224">10208,10209,10258,10257,11334,11336,11337,11335</elem>
      <elem id="9225">10209,10210,10259,10258,11336,11338,11339,11337</elem>
      <elem id="9226">10210,10211,10260,10259,11338,11340,11341,11339</elem>
      <elem id="9227">10211,10212,10261,10260,11340,11342,11343,11341</elem>
      <elem id="9228">10212,10213,10262,10261,11342,11344,11345,11343</elem>
      <elem id="9229">10213,10214,10263,10262,11344,11346,11347,11345</elem>
      <elem id="9230">10214,10215,10264,10263,11346,11348,11349,11347</elem>
      <elem id="9231">10215,10216,10265,10264,11348,11350,11351,11349</elem>
      <elem id="9232">10216,10217,10266,10265,11350,11352,11353,11351</elem>
      <elem id="9233">10217,10218,10267,10266,11352,11354,11355,11353</elem>
      <elem id="9234">10218,10219,10268,10267,11354,11356,11357,11355</elem>
      <elem id="9235">10219,10220,10269,10268,11356,11358,11359,11357</elem>
      <elem id="9236">10220,10221,10270,10269,11358,11360,11361,11359</elem>
<!-- ... 1132 like lines cut -->
    </Elements>
    <Elements type="hex8" name="conductive_tpu">
      <elem id="10369">12178,12179,12180,12181,12607,12608,12609,12610</elem>
      <elem id="10370">12179,12182,12183,12180,12608,12611,12612,12609</elem>
      <elem id="10371">12182,12184,12185,12183,12611,12613,12614,12612</elem>
      <elem id="10372">12184,12186,12187,12185,12613,12615,12616,12614</elem>
      <elem id="10373">12186,12188,12189,12187,12615,12617,12618,12616</elem>
      <elem id="10374">12188,12190,12191,12189,12617,12619,12620,12618</elem>
      <elem id="10375">12190,12192,12193,12191,12619,12621,12622,12620</elem>
      <elem id="10376">12192,12194,12195,12193,12621,12623,12624,12622</elem>
      <elem id="10377">12194,12196,12197,12195,12623,12625,12626,12624</elem>
      <elem id="10378">12196,12198,12199,12197,12625,12627,12628,12626</elem>
      <elem id="10379">12198,12200,12201,12199,12627,12629,12630,12628</elem>
      <elem id="10380">12200,12202,12203,12201,12629,12631,12632,12630</elem>
      <elem id="10381">12202,12204,12205,12203,12631,12633,12634,12632</elem>
      <elem id="10382">12204,12206,12207,12205,12633,12635,12636,12634</elem>
      <elem id="10383">12206,12208,12209,12207,12635,12637,12638,12636</elem>
      <elem id="10384">12208,12210,12211,12209,12637,12639,12640,12638</elem>
      <elem id="10385">12210,12212,12213,12211,12639,12641,12642,12640</elem>
      <elem id="10386">12212,12214,12215,12213,12641,12643,12644,12642</elem>
      <elem id="10387">12214,12216,12217,12215,12643,12645,12646,12644</elem>
      <elem id="10388">12216,12218,12219,12217,12645,12647,12648,12646</elem>
<!-- ... 1132 like lines cut -->
    </Elements>
    <NodeSet name="fixed_end">1,4,5,8,198,200,296,298,394,396,492,494,590,592,688,690,786,788,884,886,982,984,1080,1082,1178,1180,1276,1278,1374,1376,1472,1474,1570,1572,1668,1670,1766,1768,1864,1866,1962,1964,2060,2062,2158,2160,2256,2258,2354,2356,2452,2454,2550,2552,2648,2650,2746,2748,2844,2846,2942,2944,3040,3042,3138,3140,3235,3238,3334,3383,3432,3481,3530,3579,3628,3677,3726,3775,3824,3873,
    <NodeSet name="loaded_end">193,194,195,196,293,294,391,392,489,490,587,588,685,686,783,784,881,882,979,980,1077,1078,1175,1176,1273,1274,1371,1372,1469,1470,1567,1568,1665,1666,1763,1764,1861,1862,1959,1960,2057,2058,2155,2156,2253,2254,2351,2352,2449,2450,2547,2548,2645,2646,2743,2744,2841,2842,2939,2940,3037,3038,3135,3136,3233,3234,3331,3332,3381,3430,3479,3528,3577,3626,3675,3724,3773,3822
    <NodeSet name="conductive_gauge_nodes">12178,12179,12180,12181,12182,12183,12184,12185,12186,12187,12188,12189,12190,12191,12192,12193,12194,12195,12196,12197,12198,12199,12200,12201,12202,12203,12204,12205,12206,12207,12208,12209,12210,12211,12212,12213,12214,12215,12216,12217,12218,12219,12220,12221,12222,12223,12224,12225,12226,12227,12228,12229,12230,12231,12232,12233,12234,12235,12236,122
  </Mesh>
  <MeshDomains>
    <SolidDomain name="nylon_substrate" mat="nylon_provisional" />
    <SolidDomain name="tpu_backing" mat="backing_tpu_provisional" />
    <SolidDomain name="conductive_tpu" mat="conductive_tpu_provisional" />
  </MeshDomains>
  <Boundary>
    <bc name="clamped_left" type="zero displacement" node_set="fixed_end">
      <x_dof>1</x_dof>
      <y_dof>1</y_dof>
      <z_dof>1</z_dof>
    </bc>
    <bc name="thirty_percent_extension" type="prescribed displacement" node_set="loaded_end">
      <dof>x</dof>
      <value lc="1">36.0</value>
      <relative>0</relative>
    </bc>
  </Boundary>
  <LoadData>
    <load_controller id="1" type="loadcurve">
      <interpolate>LINEAR</interpolate>
      <points>
        <point>0,0</point>
        <point>1,1</point>
      </points>
    </load_controller>
  </LoadData>
  <Output>
    <plotfile type="febio" file="results/coupon_mesh_fine.xplt">
      <var type="displacement" />
      <var type="Lagrange strain" />
      <var type="stress" />
    </plotfile>
    <logfile file="results/coupon_mesh_fine.log">
      <node_data data="x;y;z" name="conductive_gauge_coordinates" node_set="conductive_gauge_nodes" delim="," />
    </logfile>
  </Output>
</febio_spec>