<?xml version='1.0' encoding='utf-8'?>
<febio_spec version="4.0">
  <Module type="solid" />
  <Control>
    <analysis>STATIC</analysis>
    <time_steps>30</time_steps>
    <step_size>0.0333333333333</step_size>
    <plot_level>PLOT_MUST_POINTS</plot_level>
    <solver type="solid">
      <max_refs>25</max_refs>
      <diverge_reform>1</diverge_reform>
      <reform_each_time_step>1</reform_each_time_step>
      <dtol>0.001</dtol>
      <etol>0.01</etol>
      <rtol>0</rtol>
    </solver>
    <time_stepper>
      <dtmin>0.0001</dtmin>
      <dtmax>0.05</dtmax>
      <max_retries>12</max_retries>
      <opt_iter>10</opt_iter>
    </time_stepper>
  </Control>
  <Material>
    <material id="1" name="nylon" type="neo-Hookean">
      <E>5</E>
      <v>0.45</v>
    </material>
    <material id="2" name="backing_tpu" type="neo-Hookean">
      <E>8</E>
      <v>0.45</v>
    </material>
    <material id="3" name="conductive_tpu" type="neo-Hookean">
      <E>15</E>
      <v>0.45</v>
    </material>
  </Material>
  <Mesh>
    <Nodes name="coupon_nodes">
      <node id="1">0,0,0</node>
      <node id="2">1.25,0,0</node>
      <node id="3">1.25,0.625,0</node>
      <node id="4">0,0.625,0</node>
      <node id="5">0,0,0.2</node>
      <node id="6">1.25,0,0.2</node>
      <node id="7">1.25,0.625,0.2</node>
      <node id="8">0,0.625,0.2</node>
      <node id="9">2.5,0,0</node>
      <node id="10">2.5,0.625,0</node>
      <node id="11">2.5,0,0.2</node>
      <node id="12">2.5,0.625,0.2</node>
      <node id="13">3.75,0,0</node>
      <node id="14">3.75,0.625,0</node>
      <node id="15">3.75,0,0.2</node>
      <node id="16">3.75,0.625,0.2</node>
      <node id="17">5,0,0</node>
      <node id="18">5,0.625,0</node>
      <node id="19">5,0,0.2</node>
      <node id="20">5,0.625,0.2</node>
<!-- ... 69725 like lines cut -->
    </Nodes>
    <Elements type="hex8" name="nylon_substrate">
      <elem id="1">1,2,3,4,5,6,7,8</elem>
      <elem id="2">2,9,10,3,6,11,12,7</elem>
      <elem id="3">9,13,14,10,11,15,16,12</elem>
      <elem id="4">13,17,18,14,15,19,20,16</elem>
      <elem id="5">17,21,22,18,19,23,24,20</elem>
      <elem id="6">21,25,26,22,23,27,28,24</elem>
      <elem id="7">25,29,30,26,27,31,32,28</elem>
      <elem id="8">29,33,34,30,31,35,36,32</elem>
      <elem id="9">33,37,38,34,35,39,40,36</elem>
      <elem id="10">37,41,42,38,39,43,44,40</elem>
      <elem id="11">41,45,46,42,43,47,48,44</elem>
      <elem id="12">45,49,50,46,47,51,52,48</elem>
      <elem id="13">49,53,54,50,51,55,56,52</elem>
      <elem id="14">53,57,58,54,55,59,60,56</elem>
      <elem id="15">57,61,62,58,59,63,64,60</elem>
      <elem id="16">61,65,66,62,63,67,68,64</elem>
      <elem id="17">65,69,70,66,67,71,72,68</elem>
      <elem id="18">69,73,74,70,71,75,76,72</elem>
      <elem id="19">73,77,78,74,75,79,80,76</elem>
      <elem id="20">77,81,82,78,79,83,84,80</elem>
<!-- ... 49132 like lines cut -->
    </Elements>
    <Elements type="hex8" name="tpu_backing">
      <elem id="49153">52397,52398,52495,52494,56746,56747,56748,56749</elem>
      <elem id="49154">52398,52399,52496,52495,56747,56750,56751,56748</elem>
      <elem id="49155">52399,52400,52497,52496,56750,56752,56753,56751</elem>
      <elem id="49156">52400,52401,52498,52497,56752,56754,56755,56753</elem>
      <elem id="49157">52401,52402,52499,52498,56754,56756,56757,56755</elem>
      <elem id="49158">52402,52403,52500,52499,56756,56758,56759,56757</elem>
      <elem id="49159">52403,52404,52501,52500,56758,56760,56761,56759</elem>
      <elem id="49160">52404,52405,52502,52501,56760,56762,56763,56761</elem>
      <elem id="49161">52405,52406,52503,52502,56762,56764,56765,56763</elem>
      <elem id="49162">52406,52407,52504,52503,56764,56766,56767,56765</elem>
      <elem id="49163">52407,52408,52505,52504,56766,56768,56769,56767</elem>
      <elem id="49164">52408,52409,52506,52505,56768,56770,56771,56769</elem>
      <elem id="49165">52409,52410,52507,52506,56770,56772,56773,56771</elem>
      <elem id="49166">52410,52411,52508,52507,56772,56774,56775,56773</elem>
      <elem id="49167">52411,52412,52509,52508,56774,56776,56777,56775</elem>
      <elem id="49168">52412,52413,52510,52509,56776,56778,56779,56777</elem>
      <elem id="49169">52413,52414,52511,52510,56778,56780,56781,56779</elem>
      <elem id="49170">52414,52415,52512,52511,56780,56782,56783,56781</elem>
      <elem id="49171">52415,52416,52513,52512,56782,56784,56785,56783</elem>
      <elem id="49172">52416,52417,52514,52513,56784,56786,56787,56785</elem>
<!-- ... 6124 like lines cut -->
    </Elements>
    <Elements type="hex8" name="conductive_tpu">
      <elem id="55297">61621,61622,61623,61624,63246,63247,63248,63249</elem>
      <elem id="55298">61622,61625,61626,61623,63247,63250,63251,63248</elem>
      <elem id="55299">61625,61627,61628,61626,63250,63252,63253,63251</elem>
      <elem id="55300">61627,61629,61630,61628,63252,63254,63255,63253</elem>
      <elem id="55301">61629,61631,61632,61630,63254,63256,63257,63255</elem>
      <elem id="55302">61631,61633,61634,61632,63256,63258,63259,63257</elem>
      <elem id="55303">61633,61635,61636,61634,63258,63260,63261,63259</elem>
      <elem id="55304">61635,61637,61638,61636,63260,63262,63263,63261</elem>
      <elem id="55305">61637,61639,61640,61638,63262,63264,63265,63263</elem>
      <elem id="55306">61639,61641,61642,61640,63264,63266,63267,63265</elem>
      <elem id="55307">61641,61643,61644,61642,63266,63268,63269,63267</elem>
      <elem id="55308">61643,61645,61646,61644,63268,63270,63271,63269</elem>
      <elem id="55309">61645,61647,61648,61646,63270,63272,63273,63271</elem>
      <elem id="55310">61647,61649,61650,61648,63272,63274,63275,63273</elem>
      <elem id="55311">61649,61651,61652,61650,63274,63276,63277,63275</elem>
      <elem id="55312">61651,61653,61654,61652,63276,63278,63279,63277</elem>
      <elem id="55313">61653,61655,61656,61654,63278,63280,63281,63279</elem>
      <elem id="55314">61655,61657,61658,61656,63280,63282,63283,63281</elem>
      <elem id="55315">61657,61659,61660,61658,63282,63284,63285,63283</elem>
      <elem id="55316">61659,61661,61662,61660,63284,63286,63287,63285</elem>
<!-- ... 6124 like lines cut -->
    </Elements>
    <NodeSet name="fixed_end">1,4,5,8,390,392,584,586,778,780,972,974,1166,1168,1360,1362,1554,1556,1748,1750,1942,1944,2136,2138,2330,2332,2524,2526,2718,2720,2912,2914,3106,3108,3300,3302,3494,3496,3688,3690,3882,3884,4076,4078,4270,4272,4464,4466,4658,4660,4852,4854,5046,5048,5240,5242,5434,5436,5628,5630,5822,5824,6016,6018,6210,6212,6404,6406,6598,6600,6792,6794,6986,6988,7180,7182,7374,7376,
    <NodeSet name="loaded_end">385,386,387,388,581,582,775,776,969,970,1163,1164,1357,1358,1551,1552,1745,1746,1939,1940,2133,2134,2327,2328,2521,2522,2715,2716,2909,2910,3103,3104,3297,3298,3491,3492,3685,3686,3879,3880,4073,4074,4267,4268,4461,4462,4655,4656,4849,4850,5043,5044,5237,5238,5431,5432,5625,5626,5819,5820,6013,6014,6207,6208,6401,6402,6595,6596,6789,6790,6983,6984,7177,7178,7371,7372
    <NodeSet name="conductive_gauge_nodes">61621,61622,61623,61624,61625,61626,61627,61628,61629,61630,61631,61632,61633,61634,61635,61636,61637,61638,61639,61640,61641,61642,61643,61644,61645,61646,61647,61648,61649,61650,61651,61652,61653,61654,61655,61656,61657,61658,61659,61660,61661,61662,61663,61664,61665,61666,61667,61668,61669,61670,61671,61672,61673,61674,61675,61676,61677,61678,61679,616
  </Mesh>
  <MeshDomains>
    <SolidDomain name="nylon_substrate" mat="nylon" />
    <SolidDomain name="tpu_backing" mat="backing_tpu" />
    <SolidDomain name="conductive_tpu" mat="conductive_tpu" />
  </MeshDomains>
  <Boundary>
    <bc name="clamped_left" type="zero displacement" node_set="fixed_end">
      <x_dof>1</x_dof>
      <y_dof>1</y_dof>
      <z_dof>1</z_dof>
    </bc>
    <bc name="thirty_percent_extension" type="prescribed displacement" node_set="loaded_end">
      <dof>x</dof>
      <value lc="1">36.0</value>
      <relative>0</relative>
    </bc>
  </Boundary>
  <LoadData>
    <load_controller id="1" type="loadcurve">
      <interpolate>LINEAR</interpolate>
      <points>
        <point>0,0</point>
        <point>1,1</point>
      </points>
    </load_controller>
  </LoadData>
  <Output>
    <plotfile type="febio" file="results/coupon_mesh_extra_fine.xplt">
      <var type="displacement" />
      <var type="Lagrange strain" />
      <var type="stress" />
    </plotfile>
    <logfile file="results/coupon_mesh_extra_fine.log">
      <node_data data="x;y;z" name="conductive_gauge_coordinates" node_set="conductive_gauge_nodes" delim="," />
    </logfile>
  </Output>
</febio_spec>