<?xml version='1.0' encoding='utf-8'?>
<febio_spec version="4.0">
  <Module type="solid" />
  <Control>
    <analysis>STATIC</analysis>
    <time_steps>80</time_steps>
    <step_size>0.0125</step_size>
    <plot_level>PLOT_MUST_POINTS</plot_level>
    <solver type="solid">
      <max_refs>35</max_refs>
      <diverge_reform>1</diverge_reform>
      <reform_each_time_step>1</reform_each_time_step>
      <symmetric_stiffness>0</symmetric_stiffness>
      <dtol>0.02</dtol>
      <etol>0.0001</etol>
      <rtol>0.001</rtol>
    </solver>
    <time_stepper>
      <dtmin>1e-05</dtmin>
      <dtmax>0.0125</dtmax>
      <max_retries>15</max_retries>
      <opt_iter>10</opt_iter>
    </time_stepper>
  </Control>
  <Material>
    <material id="1" name="textile_provisional" type="neo-Hookean">
      <E>0.8</E>
      <v>0.3</v>
    </material>
    <material id="2" name="torso_fixed" type="neo-Hookean">
      <E>0.8</E>
      <v>0.3</v>
    </material>
  </Material>
  <Mesh>
    <Nodes name="shirt_nodes">
      <node id="1">128.5,0,0</node>
      <node id="2">127.400665,13.7705133,0</node>
      <node id="3">124.121469,27.3054093,0</node>
      <node id="4">118.71852,40.3731021,0</node>
      <node id="5">111.284264,52.75,0</node>
      <node id="6">101.945904,64.2243308,0</node>
      <node id="7">90.8632214,74.5997654,0</node>
      <node id="8">78.2258436,83.6987774,0</node>
      <node id="9">64.25,91.3656801,0</node>
      <node id="10">49.1748211,97.4692907,0</node>
      <node id="11">33.2582473,101.905175,0</node>
      <node id="12">16.7726157,104.597433,0</node>
      <node id="13">7.86835568e-15,105.5,0</node>
      <node id="14">-16.7726157,104.597433,0</node>
      <node id="15">-33.2582473,101.905175,0</node>
      <node id="16">-49.1748211,97.4692907,0</node>
      <node id="17">-64.25,91.3656801,0</node>
      <node id="18">-78.2258436,83.6987774,0</node>
      <node id="19">-90.8632214,74.5997654,0</node>
      <node id="20">-101.945904,64.2243308,0</node>
<!-- ... 988 like lines cut -->
    </Nodes>
    <Nodes name="torso_nodes">
      <node id="1009">128,0,-50</node>
      <node id="1010">126.904942,13.7052502,-50</node>
      <node id="1011">123.638506,27.1759997,-50</node>
      <node id="1012">118.25658,40.1817604,-50</node>
      <node id="1013">110.851252,52.5,-50</node>
      <node id="1014">101.549228,63.91995,-50</node>
      <node id="1015">90.509668,74.246212,-50</node>
      <node id="1016">77.9214629,83.3021007,-50</node>
      <node id="1017">64,90.9326674,-50</node>
      <node id="1018">48.9834793,97.0073509,-50</node>
      <node id="1019">33.1288378,101.422212,-50</node>
      <node id="1020">16.7073526,104.10171,-50</node>
      <node id="1021">7.83773951e-15,105,-50</node>
      <node id="1022">-16.7073526,104.10171,-50</node>
      <node id="1023">-33.1288378,101.422212,-50</node>
      <node id="1024">-48.9834793,97.0073509,-50</node>
      <node id="1025">-64,90.9326674,-50</node>
      <node id="1026">-77.9214629,83.3021007,-50</node>
      <node id="1027">-90.509668,74.246212,-50</node>
      <node id="1028">-101.549228,63.91995,-50</node>
<!-- ... 988 like lines cut -->
    </Nodes>
    <Elements type="quad4" name="shirt_back">
      <elem id="1">1,2,50,49</elem>
      <elem id="2">2,3,51,50</elem>
      <elem id="3">3,4,52,51</elem>
      <elem id="4">4,5,53,52</elem>
      <elem id="5">5,6,54,53</elem>
      <elem id="6">6,7,55,54</elem>
      <elem id="7">7,8,56,55</elem>
      <elem id="8">8,9,57,56</elem>
      <elem id="9">9,10,58,57</elem>
      <elem id="10">10,11,59,58</elem>
      <elem id="11">11,12,60,59</elem>
      <elem id="12">12,13,61,60</elem>
      <elem id="13">13,14,62,61</elem>
      <elem id="14">14,15,63,62</elem>
      <elem id="15">15,16,64,63</elem>
      <elem id="16">16,17,65,64</elem>
      <elem id="17">17,18,66,65</elem>
      <elem id="18">18,19,67,66</elem>
      <elem id="19">19,20,68,67</elem>
      <elem id="20">20,21,69,68</elem>
<!-- ... 460 like lines cut -->
    </Elements>
    <Elements type="quad4" name="shirt_front">
      <elem id="481">25,26,74,73</elem>
      <elem id="482">26,27,75,74</elem>
      <elem id="483">27,28,76,75</elem>
      <elem id="484">28,29,77,76</elem>
      <elem id="485">29,30,78,77</elem>
      <elem id="486">30,31,79,78</elem>
      <elem id="487">31,32,80,79</elem>
      <elem id="488">32,33,81,80</elem>
      <elem id="489">33,34,82,81</elem>
      <elem id="490">34,35,83,82</elem>
      <elem id="491">35,36,84,83</elem>
      <elem id="492">36,37,85,84</elem>
      <elem id="493">37,38,86,85</elem>
      <elem id="494">38,39,87,86</elem>
      <elem id="495">39,40,88,87</elem>
      <elem id="496">40,41,89,88</elem>
      <elem id="497">41,42,90,89</elem>
      <elem id="498">42,43,91,90</elem>
      <elem id="499">43,44,92,91</elem>
      <elem id="500">44,45,93,92</elem>
<!-- ... 460 like lines cut -->
    </Elements>
    <Elements type="quad4" name="torso_surface_elements">
      <elem id="961">1009,1010,1058,1057</elem>
      <elem id="962">1010,1011,1059,1058</elem>
      <elem id="963">1011,1012,1060,1059</elem>
      <elem id="964">1012,1013,1061,1060</elem>
      <elem id="965">1013,1014,1062,1061</elem>
      <elem id="966">1014,1015,1063,1062</elem>
      <elem id="967">1015,1016,1064,1063</elem>
      <elem id="968">1016,1017,1065,1064</elem>
      <elem id="969">1017,1018,1066,1065</elem>
      <elem id="970">1018,1019,1067,1066</elem>
      <elem id="971">1019,1020,1068,1067</elem>
      <elem id="972">1020,1021,1069,1068</elem>
      <elem id="973">1021,1022,1070,1069</elem>
      <elem id="974">1022,1023,1071,1070</elem>
      <elem id="975">1023,1024,1072,1071</elem>
      <elem id="976">1024,1025,1073,1072</elem>
      <elem id="977">1025,1026,1074,1073</elem>
      <elem id="978">1026,1027,1075,1074</elem>
      <elem id="979">1027,1028,1076,1075</elem>
      <elem id="980">1028,1029,1077,1076</elem>
<!-- ... 940 like lines cut -->
    </Elements>
    <NodeSet name="shirt_top_ring">961,962,963,964,965,966,967,968,969,970,971,972,973,974,975,976,977,978,979,980,981,982,983,984,985,986,987,988,989,990,991,992,993,994,995,996,997,998,999,1000,1001,1002,1003,1004,1005,1006,1007,1008</NodeSet>
    <NodeSet name="shirt_top_node_0">961</NodeSet>
    <NodeSet name="shirt_top_node_1">962</NodeSet>
    <NodeSet name="shirt_top_node_2">963</NodeSet>
    <NodeSet name="shirt_top_node_3">964</NodeSet>
    <NodeSet name="shirt_top_node_4">965</NodeSet>
    <NodeSet name="shirt_top_node_5">966</NodeSet>
    <NodeSet name="shirt_top_node_6">967</NodeSet>
    <NodeSet name="shirt_top_node_7">968</NodeSet>
    <NodeSet name="shirt_top_node_8">969</NodeSet>
    <NodeSet name="shirt_top_node_9">970</NodeSet>
    <NodeSet name="shirt_top_node_10">971</NodeSet>
    <NodeSet name="shirt_top_node_11">972</NodeSet>
    <NodeSet name="shirt_top_node_12">973</NodeSet>
    <NodeSet name="shirt_top_node_13">974</NodeSet>
    <NodeSet name="shirt_top_node_14">975</NodeSet>
    <NodeSet name="shirt_top_node_15">976</NodeSet>
    <NodeSet name="shirt_top_node_16">977</NodeSet>
    <NodeSet name="shirt_top_node_17">978</NodeSet>
    <NodeSet name="shirt_top_node_18">979</NodeSet>
    <NodeSet name="shirt_top_node_19">980</NodeSet>
<!-- ... 28 like lines cut -->
    <NodeSet name="shirt_anchor_y">961</NodeSet>
    <NodeSet name="shirt_anchor_x">973</NodeSet>
    <NodeSet name="shirt_all_nodes">1,2,3,4,5,6,7,8,9,10,11,12,13,14,15,16,17,18,19,20,21,22,23,24,25,26,27,28,29,30,31,32,33,34,35,36,37,38,39,40,41,42,43,44,45,46,47,48,49,50,51,52,53,54,55,56,57,58,59,60,61,62,63,64,65,66,67,68,69,70,71,72,73,74,75,76,77,78,79,80,81,82,83,84,85,86,87,88,89,90,91,92,93,94,95,96,97,98,99,100,101,102,103,104,105,106,107,108,109,110,111,112,113,114,115,116,117,118,
    <NodeSet name="torso_all_nodes">1009,1010,1011,1012,1013,1014,1015,1016,1017,1018,1019,1020,1021,1022,1023,1024,1025,1026,1027,1028,1029,1030,1031,1032,1033,1034,1035,1036,1037,1038,1039,1040,1041,1042,1043,1044,1045,1046,1047,1048,1049,1050,1051,1052,1053,1054,1055,1056,1057,1058,1059,1060,1061,1062,1063,1064,1065,1066,1067,1068,1069,1070,1071,1072,1073,1074,1075,1076,1077,1078,1079,1080,1081
    <NodeSet name="torso_column_0">1009,1057,1105,1153,1201,1249,1297,1345,1393,1441,1489,1537,1585,1633,1681,1729,1777,1825,1873,1921,1969</NodeSet>
    <NodeSet name="torso_column_1">1010,1058,1106,1154,1202,1250,1298,1346,1394,1442,1490,1538,1586,1634,1682,1730,1778,1826,1874,1922,1970</NodeSet>
    <NodeSet name="torso_column_2">1011,1059,1107,1155,1203,1251,1299,1347,1395,1443,1491,1539,1587,1635,1683,1731,1779,1827,1875,1923,1971</NodeSet>
    <NodeSet name="torso_column_3">1012,1060,1108,1156,1204,1252,1300,1348,1396,1444,1492,1540,1588,1636,1684,1732,1780,1828,1876,1924,1972</NodeSet>
    <NodeSet name="torso_column_4">1013,1061,1109,1157,1205,1253,1301,1349,1397,1445,1493,1541,1589,1637,1685,1733,1781,1829,1877,1925,1973</NodeSet>
    <NodeSet name="torso_column_5">1014,1062,1110,1158,1206,1254,1302,1350,1398,1446,1494,1542,1590,1638,1686,1734,1782,1830,1878,1926,1974</NodeSet>
    <NodeSet name="torso_column_6">1015,1063,1111,1159,1207,1255,1303,1351,1399,1447,1495,1543,1591,1639,1687,1735,1783,1831,1879,1927,1975</NodeSet>
    <NodeSet name="torso_column_7">1016,1064,1112,1160,1208,1256,1304,1352,1400,1448,1496,1544,1592,1640,1688,1736,1784,1832,1880,1928,1976</NodeSet>
    <NodeSet name="torso_column_8">1017,1065,1113,1161,1209,1257,1305,1353,1401,1449,1497,1545,1593,1641,1689,1737,1785,1833,1881,1929,1977</NodeSet>
    <NodeSet name="torso_column_9">1018,1066,1114,1162,1210,1258,1306,1354,1402,1450,1498,1546,1594,1642,1690,1738,1786,1834,1882,1930,1978</NodeSet>
    <NodeSet name="torso_column_10">1019,1067,1115,1163,1211,1259,1307,1355,1403,1451,1499,1547,1595,1643,1691,1739,1787,1835,1883,1931,1979</NodeSet>
    <NodeSet name="torso_column_11">1020,1068,1116,1164,1212,1260,1308,1356,1404,1452,1500,1548,1596,1644,1692,1740,1788,1836,1884,1932,1980</NodeSet>
    <NodeSet name="torso_column_12">1021,1069,1117,1165,1213,1261,1309,1357,1405,1453,1501,1549,1597,1645,1693,1741,1789,1837,1885,1933,1981</NodeSet>
    <NodeSet name="torso_column_13">1022,1070,1118,1166,1214,1262,1310,1358,1406,1454,1502,1550,1598,1646,1694,1742,1790,1838,1886,1934,1982</NodeSet>
    <NodeSet name="torso_column_14">1023,1071,1119,1167,1215,1263,1311,1359,1407,1455,1503,1551,1599,1647,1695,1743,1791,1839,1887,1935,1983</NodeSet>
    <NodeSet name="torso_column_15">1024,1072,1120,1168,1216,1264,1312,1360,1408,1456,1504,1552,1600,1648,1696,1744,1792,1840,1888,1936,1984</NodeSet>
    <NodeSet name="torso_column_16">1025,1073,1121,1169,1217,1265,1313,1361,1409,1457,1505,1553,1601,1649,1697,1745,1793,1841,1889,1937,1985</NodeSet>
    <NodeSet name="torso_column_17">1026,1074,1122,1170,1218,1266,1314,1362,1410,1458,1506,1554,1602,1650,1698,1746,1794,1842,1890,1938,1986</NodeSet>
    <NodeSet name="torso_column_18">1027,1075,1123,1171,1219,1267,1315,1363,1411,1459,1507,1555,1603,1651,1699,1747,1795,1843,1891,1939,1987</NodeSet>
    <NodeSet name="torso_column_19">1028,1076,1124,1172,1220,1268,1316,1364,1412,1460,1508,1556,1604,1652,1700,1748,1796,1844,1892,1940,1988</NodeSet>
<!-- ... 28 like lines cut -->
    <ElementSet name="shirt_all">1,2,3,4,5,6,7,8,9,10,11,12,13,14,15,16,17,18,19,20,21,22,23,24,25,26,27,28,29,30,31,32,33,34,35,36,37,38,39,40,41,42,43,44,45,46,47,48,49,50,51,52,53,54,55,56,57,58,59,60,61,62,63,64,65,66,67,68,69,70,71,72,73,74,75,76,77,78,79,80,81,82,83,84,85,86,87,88,89,90,91,92,93,94,95,96,97,98,99,100,101,102,103,104,105,106,107,108,109,110,111,112,113,114,115,116,117,118,119
    <Surface name="shirt_on_torso_primary">
      <quad4 id="1">1,49,50,2</quad4>
      <quad4 id="2">2,50,51,3</quad4>
      <quad4 id="3">3,51,52,4</quad4>
      <quad4 id="4">4,52,53,5</quad4>
      <quad4 id="5">5,53,54,6</quad4>
      <quad4 id="6">6,54,55,7</quad4>
      <quad4 id="7">7,55,56,8</quad4>
      <quad4 id="8">8,56,57,9</quad4>
      <quad4 id="9">9,57,58,10</quad4>
      <quad4 id="10">10,58,59,11</quad4>
      <quad4 id="11">11,59,60,12</quad4>
      <quad4 id="12">12,60,61,13</quad4>
      <quad4 id="13">13,61,62,14</quad4>
      <quad4 id="14">14,62,63,15</quad4>
      <quad4 id="15">15,63,64,16</quad4>
      <quad4 id="16">16,64,65,17</quad4>
      <quad4 id="17">17,65,66,18</quad4>
      <quad4 id="18">18,66,67,19</quad4>
      <quad4 id="19">19,67,68,20</quad4>
      <quad4 id="20">20,68,69,21</quad4>
<!-- ... 940 like lines cut -->
    </Surface>
    <Surface name="shirt_on_torso_secondary">
      <quad4 id="1">1009,1010,1058,1057</quad4>
      <quad4 id="2">1010,1011,1059,1058</quad4>
      <quad4 id="3">1011,1012,1060,1059</quad4>
      <quad4 id="4">1012,1013,1061,1060</quad4>
      <quad4 id="5">1013,1014,1062,1061</quad4>
      <quad4 id="6">1014,1015,1063,1062</quad4>
      <quad4 id="7">1015,1016,1064,1063</quad4>
      <quad4 id="8">1016,1017,1065,1064</quad4>
      <quad4 id="9">1017,1018,1066,1065</quad4>
      <quad4 id="10">1018,1019,1067,1066</quad4>
      <quad4 id="11">1019,1020,1068,1067</quad4>
      <quad4 id="12">1020,1021,1069,1068</quad4>
      <quad4 id="13">1021,1022,1070,1069</quad4>
      <quad4 id="14">1022,1023,1071,1070</quad4>
      <quad4 id="15">1023,1024,1072,1071</quad4>
      <quad4 id="16">1024,1025,1073,1072</quad4>
      <quad4 id="17">1025,1026,1074,1073</quad4>
      <quad4 id="18">1026,1027,1075,1074</quad4>
      <quad4 id="19">1027,1028,1076,1075</quad4>
      <quad4 id="20">1028,1029,1077,1076</quad4>
<!-- ... 940 like lines cut -->
    </Surface>
    <Surface name="shirt_pressure_surface">
      <quad4 id="1">1,2,50,49</quad4>
      <quad4 id="2">2,3,51,50</quad4>
      <quad4 id="3">3,4,52,51</quad4>
      <quad4 id="4">4,5,53,52</quad4>
      <quad4 id="5">5,6,54,53</quad4>
      <quad4 id="6">6,7,55,54</quad4>
      <quad4 id="7">7,8,56,55</quad4>
      <quad4 id="8">8,9,57,56</quad4>
      <quad4 id="9">9,10,58,57</quad4>
      <quad4 id="10">10,11,59,58</quad4>
      <quad4 id="11">11,12,60,59</quad4>
      <quad4 id="12">12,13,61,60</quad4>
      <quad4 id="13">13,14,62,61</quad4>
      <quad4 id="14">14,15,63,62</quad4>
      <quad4 id="15">15,16,64,63</quad4>
      <quad4 id="16">16,17,65,64</quad4>
      <quad4 id="17">17,18,66,65</quad4>
      <quad4 id="18">18,19,67,66</quad4>
      <quad4 id="19">19,20,68,67</quad4>
      <quad4 id="20">20,21,69,68</quad4>
<!-- ... 940 like lines cut -->
    </Surface>
    <SurfacePair name="shirt_torso_pair">
      <primary>shirt_on_torso_primary</primary>
      <secondary>shirt_on_torso_secondary</secondary>
    </SurfacePair>
  </Mesh>
  <MeshDomains>
    <ShellDomain name="shirt_front" mat="textile_provisional" type="elastic-shell">
      <shell_thickness>1.6</shell_thickness>
    </ShellDomain>
    <ShellDomain name="shirt_back" mat="textile_provisional" type="elastic-shell">
      <shell_thickness>1.6</shell_thickness>
    </ShellDomain>
    <ShellDomain name="torso_surface_elements" mat="torso_fixed" type="elastic-shell">
      <shell_thickness>1.0</shell_thickness>
    </ShellDomain>
  </MeshDomains>
  <Boundary>
    <bc name="both_arms_raise_x_0" type="prescribed displacement" node_set="shirt_top_node_0">
      <dof>x</dof>
      <value lc="2">1.6875</value>
    </bc>
    <bc name="both_arms_raise_z_0" type="prescribed displacement" node_set="shirt_top_node_0">
      <dof>z</dof>
      <value lc="2">9.75</value>
    </bc>
    <bc name="both_arms_raise_x_1" type="prescribed displacement" node_set="shirt_top_node_1">
      <dof>x</dof>
      <value lc="2">1.67306320357</value>
    </bc>
    <bc name="both_arms_raise_z_1" type="prescribed displacement" node_set="shirt_top_node_1">
      <dof>z</dof>
      <value lc="2">9.67524978142</value>
    </bc>
    <bc name="both_arms_raise_x_2" type="prescribed displacement" node_set="shirt_top_node_2">
      <dof>x</dof>
      <value lc="2">1.62999983186</value>
    </bc>
    <bc name="both_arms_raise_z_2" type="prescribed displacement" node_set="shirt_top_node_2">
      <dof>z</dof>
      <value lc="2">9.45609322955</value>
    </bc>
    <bc name="both_arms_raise_x_3" type="prescribed displacement" node_set="shirt_top_node_3">
      <dof>x</dof>
      <value lc="2">1.55904671111</value>
    </bc>
    <bc name="both_arms_raise_z_3" type="prescribed displacement" node_set="shirt_top_node_3">
      <dof>z</dof>
      <value lc="2">9.10746550123</value>
    </bc>
    <bc name="both_arms_raise_x_4" type="prescribed displacement" node_set="shirt_top_node_4">
      <dof>x</dof>
      <value lc="2">1.46141786889</value>
    </bc>
    <bc name="both_arms_raise_z_4" type="prescribed displacement" node_set="shirt_top_node_4">
      <dof>z</dof>
      <value lc="2">8.653125</value>
    </bc>
    <bc name="both_arms_raise_x_5" type="prescribed displacement" node_set="shirt_top_node_5">
      <dof>x</dof>
      <value lc="2">1.33878376174</value>
    </bc>
    <bc name="both_arms_raise_z_5" type="prescribed displacement" node_set="shirt_top_node_5">
      <dof>z</dof>
      <value lc="2">8.12403428019</value>
    </bc>
    <bc name="both_arms_raise_x_6" type="prescribed displacement" node_set="shirt_top_node_6">
      <dof>x</dof>
      <value lc="2">1.19324269325</value>
    </bc>
    <bc name="both_arms_raise_z_6" type="prescribed displacement" node_set="shirt_top_node_6">
      <dof>z</dof>
      <value lc="2">7.55625</value>
    </bc>
    <bc name="both_arms_raise_x_7" type="prescribed displacement" node_set="shirt_top_node_7">
      <dof>x</dof>
      <value lc="2">1.02728491145</value>
    </bc>
    <bc name="both_arms_raise_z_7" type="prescribed displacement" node_set="shirt_top_node_7">
      <dof>z</dof>
      <value lc="2">6.98846571981</value>
    </bc>
    <bc name="both_arms_raise_x_8" type="prescribed displacement" node_set="shirt_top_node_8">
      <dof>x</dof>
      <value lc="2">0.84375</value>
    </bc>
    <bc name="both_arms_raise_z_8" type="prescribed displacement" node_set="shirt_top_node_8">
      <dof>z</dof>
      <value lc="2">6.459375</value>
    </bc>
    <bc name="both_arms_raise_x_9" type="prescribed displacement" node_set="shirt_top_node_9">
      <dof>x</dof>
      <value lc="2">0.645778292116</value>
    </bc>
    <bc name="both_arms_raise_z_9" type="prescribed displacement" node_set="shirt_top_node_9">
      <dof>z</dof>
      <value lc="2">6.00503449877</value>
    </bc>
    <bc name="both_arms_raise_x_10" type="prescribed displacement" node_set="shirt_top_node_10">
      <dof>x</dof>
      <value lc="2">0.436757138611</value>
    </bc>
    <bc name="both_arms_raise_z_10" type="prescribed displacement" node_set="shirt_top_node_10">
      <dof>z</dof>
      <value lc="2">5.65640677045</value>
    </bc>
    <bc name="both_arms_raise_x_11" type="prescribed displacement" node_set="shirt_top_node_11">
      <dof>x</dof>
      <value lc="2">0.220262949371</value>
    </bc>
    <bc name="both_arms_raise_z_11" type="prescribed displacement" node_set="shirt_top_node_11">
      <dof>z</dof>
      <value lc="2">5.43725021858</value>
    </bc>
    <bc name="both_arms_raise_x_12" type="prescribed displacement" node_set="shirt_top_node_12">
      <dof>x</dof>
      <value lc="2">1.03329573678e-16</value>
    </bc>
    <bc name="both_arms_raise_z_12" type="prescribed displacement" node_set="shirt_top_node_12">
      <dof>z</dof>
      <value lc="2">5.3625</value>
    </bc>
    <bc name="both_arms_raise_x_13" type="prescribed displacement" node_set="shirt_top_node_13">
      <dof>x</dof>
      <value lc="2">-0.220262949371</value>
    </bc>
    <bc name="both_arms_raise_z_13" type="prescribed displacement" node_set="shirt_top_node_13">
      <dof>z</dof>
      <value lc="2">5.43725021858</value>
    </bc>
    <bc name="both_arms_raise_x_14" type="prescribed displacement" node_set="shirt_top_node_14">
      <dof>x</dof>
      <value lc="2">-0.436757138611</value>
    </bc>
    <bc name="both_arms_raise_z_14" type="prescribed displacement" node_set="shirt_top_node_14">
      <dof>z</dof>
      <value lc="2">5.65640677045</value>
    </bc>
    <bc name="both_arms_raise_x_15" type="prescribed displacement" node_set="shirt_top_node_15">
      <dof>x</dof>
      <value lc="2">-0.645778292116</value>
    </bc>
    <bc name="both_arms_raise_z_15" type="prescribed displacement" node_set="shirt_top_node_15">
      <dof>z</dof>
      <value lc="2">6.00503449877</value>
    </bc>
    <bc name="both_arms_raise_x_16" type="prescribed displacement" node_set="shirt_top_node_16">
      <dof>x</dof>
      <value lc="2">-0.84375</value>
    </bc>
    <bc name="both_arms_raise_z_16" type="prescribed displacement" node_set="shirt_top_node_16">
      <dof>z</dof>
      <value lc="2">6.459375</value>
    </bc>
    <bc name="both_arms_raise_x_17" type="prescribed displacement" node_set="shirt_top_node_17">
      <dof>x</dof>
      <value lc="2">-1.02728491145</value>
    </bc>
    <bc name="both_arms_raise_z_17" type="prescribed displacement" node_set="shirt_top_node_17">
      <dof>z</dof>
      <value lc="2">6.98846571981</value>
    </bc>
    <bc name="both_arms_raise_x_18" type="prescribed displacement" node_set="shirt_top_node_18">
      <dof>x</dof>
      <value lc="2">-1.19324269325</value>
    </bc>
    <bc name="both_arms_raise_z_18" type="prescribed displacement" node_set="shirt_top_node_18">
      <dof>z</dof>
      <value lc="2">7.55625</value>
    </bc>
    <bc name="both_arms_raise_x_19" type="prescribed displacement" node_set="shirt_top_node_19">
      <dof>x</dof>
      <value lc="2">-1.33878376174</value>
    </bc>
    <bc name="both_arms_raise_z_19" type="prescribed displacement" node_set="shirt_top_node_19">
      <dof>z</dof>
      <value lc="2">8.12403428019</value>
    </bc>
    <bc name="both_arms_raise_x_20" type="prescribed displacement" node_set="shirt_top_node_20">
      <dof>x</dof>
      <value lc="2">-1.46141786889</value>
    </bc>
    <bc name="both_arms_raise_z_20" type="prescribed displacement" node_set="shirt_top_node_20">
      <dof>z</dof>
      <value lc="2">8.653125</value>
    </bc>
    <bc name="both_arms_raise_x_21" type="prescribed displacement" node_set="shirt_top_node_21">
      <dof>x</dof>
      <value lc="2">-1.55904671111</value>
    </bc>
    <bc name="both_arms_raise_z_21" type="prescribed displacement" node_set="shirt_top_node_21">
      <dof>z</dof>
      <value lc="2">9.10746550123</value>
    </bc>
    <bc name="both_arms_raise_x_22" type="prescribed displacement" node_set="shirt_top_node_22">
      <dof>x</dof>
      <value lc="2">-1.62999983186</value>
    </bc>
    <bc name="both_arms_raise_z_22" type="prescribed displacement" node_set="shirt_top_node_22">
      <dof>z</dof>
      <value lc="2">9.45609322955</value>
    </bc>
    <bc name="both_arms_raise_x_23" type="prescribed displacement" node_set="shirt_top_node_23">
      <dof>x</dof>
      <value lc="2">-1.67306320357</value>
    </bc>
    <bc name="both_arms_raise_z_23" type="prescribed displacement" node_set="shirt_top_node_23">
      <dof>z</dof>
      <value lc="2">9.67524978142</value>
    </bc>
    <bc name="both_arms_raise_x_24" type="prescribed displacement" node_set="shirt_top_node_24">
      <dof>x</dof>
      <value lc="2">-1.6875</value>
    </bc>
    <bc name="both_arms_raise_z_24" type="prescribed displacement" node_set="shirt_top_node_24">
      <dof>z</dof>
      <value lc="2">9.75</value>
    </bc>
    <bc name="both_arms_raise_x_25" type="prescribed displacement" node_set="shirt_top_node_25">
      <dof>x</dof>
      <value lc="2">-1.67306320357</value>
    </bc>
    <bc name="both_arms_raise_z_25" type="prescribed displacement" node_set="shirt_top_node_25">
      <dof>z</dof>
      <value lc="2">9.67524978142</value>
    </bc>
    <bc name="both_arms_raise_x_26" type="prescribed displacement" node_set="shirt_top_node_26">
      <dof>x</dof>
      <value lc="2">-1.62999983186</value>
    </bc>
    <bc name="both_arms_raise_z_26" type="prescribed displacement" node_set="shirt_top_node_26">
      <dof>z</dof>
      <value lc="2">9.45609322955</value>
    </bc>
    <bc name="both_arms_raise_x_27" type="prescribed displacement" node_set="shirt_top_node_27">
      <dof>x</dof>
      <value lc="2">-1.55904671111</value>
    </bc>
    <bc name="both_arms_raise_z_27" type="prescribed displacement" node_set="shirt_top_node_27">
      <dof>z</dof>
      <value lc="2">9.10746550123</value>
    </bc>
    <bc name="both_arms_raise_x_28" type="prescribed displacement" node_set="shirt_top_node_28">
      <dof>x</dof>
      <value lc="2">-1.46141786889</value>
    </bc>
    <bc name="both_arms_raise_z_28" type="prescribed displacement" node_set="shirt_top_node_28">
      <dof>z</dof>
      <value lc="2">8.653125</value>
    </bc>
    <bc name="both_arms_raise_x_29" type="prescribed displacement" node_set="shirt_top_node_29">
      <dof>x</dof>
      <value lc="2">-1.33878376174</value>
    </bc>
    <bc name="both_arms_raise_z_29" type="prescribed displacement" node_set="shirt_top_node_29">
      <dof>z</dof>
      <value lc="2">8.12403428019</value>
    </bc>
    <bc name="both_arms_raise_x_30" type="prescribed displacement" node_set="shirt_top_node_30">
      <dof>x</dof>
      <value lc="2">-1.19324269325</value>
    </bc>
    <bc name="both_arms_raise_z_30" type="prescribed displacement" node_set="shirt_top_node_30">
      <dof>z</dof>
      <value lc="2">7.55625</value>
    </bc>
    <bc name="both_arms_raise_x_31" type="prescribed displacement" node_set="shirt_top_node_31">
      <dof>x</dof>
      <value lc="2">-1.02728491145</value>
    </bc>
    <bc name="both_arms_raise_z_31" type="prescribed displacement" node_set="shirt_top_node_31">
      <dof>z</dof>
      <value lc="2">6.98846571981</value>
    </bc>
    <bc name="both_arms_raise_x_32" type="prescribed displacement" node_set="shirt_top_node_32">
      <dof>x</dof>
      <value lc="2">-0.84375</value>
    </bc>
    <bc name="both_arms_raise_z_32" type="prescribed displacement" node_set="shirt_top_node_32">
      <dof>z</dof>
      <value lc="2">6.459375</value>
    </bc>
    <bc name="both_arms_raise_x_33" type="prescribed displacement" node_set="shirt_top_node_33">
      <dof>x</dof>
      <value lc="2">-0.645778292116</value>
    </bc>
    <bc name="both_arms_raise_z_33" type="prescribed displacement" node_set="shirt_top_node_33">
      <dof>z</dof>
      <value lc="2">6.00503449877</value>
    </bc>
    <bc name="both_arms_raise_x_34" type="prescribed displacement" node_set="shirt_top_node_34">
      <dof>x</dof>
      <value lc="2">-0.436757138611</value>
    </bc>
    <bc name="both_arms_raise_z_34" type="prescribed displacement" node_set="shirt_top_node_34">
      <dof>z</dof>
      <value lc="2">5.65640677045</value>
    </bc>
    <bc name="both_arms_raise_x_35" type="prescribed displacement" node_set="shirt_top_node_35">
      <dof>x</dof>
      <value lc="2">-0.220262949371</value>
    </bc>
    <bc name="both_arms_raise_z_35" type="prescribed displacement" node_set="shirt_top_node_35">
      <dof>z</dof>
      <value lc="2">5.43725021858</value>
    </bc>
    <bc name="both_arms_raise_x_36" type="prescribed displacement" node_set="shirt_top_node_36">
      <dof>x</dof>
      <value lc="2">-3.09988721034e-16</value>
    </bc>
    <bc name="both_arms_raise_z_36" type="prescribed displacement" node_set="shirt_top_node_36">
      <dof>z</dof>
      <value lc="2">5.3625</value>
    </bc>
    <bc name="both_arms_raise_x_37" type="prescribed displacement" node_set="shirt_top_node_37">
      <dof>x</dof>
      <value lc="2">0.220262949371</value>
    </bc>
    <bc name="both_arms_raise_z_37" type="prescribed displacement" node_set="shirt_top_node_37">
      <dof>z</dof>
      <value lc="2">5.43725021858</value>
    </bc>
    <bc name="both_arms_raise_x_38" type="prescribed displacement" node_set="shirt_top_node_38">
      <dof>x</dof>
      <value lc="2">0.436757138611</value>
    </bc>
    <bc name="both_arms_raise_z_38" type="prescribed displacement" node_set="shirt_top_node_38">
      <dof>z</dof>
      <value lc="2">5.65640677045</value>
    </bc>
    <bc name="both_arms_raise_x_39" type="prescribed displacement" node_set="shirt_top_node_39">
      <dof>x</dof>
      <value lc="2">0.645778292116</value>
    </bc>
    <bc name="both_arms_raise_z_39" type="prescribed displacement" node_set="shirt_top_node_39">
      <dof>z</dof>
      <value lc="2">6.00503449877</value>
    </bc>
    <bc name="both_arms_raise_x_40" type="prescribed displacement" node_set="shirt_top_node_40">
      <dof>x</dof>
      <value lc="2">0.84375</value>
    </bc>
    <bc name="both_arms_raise_z_40" type="prescribed displacement" node_set="shirt_top_node_40">
      <dof>z</dof>
      <value lc="2">6.459375</value>
    </bc>
    <bc name="both_arms_raise_x_41" type="prescribed displacement" node_set="shirt_top_node_41">
      <dof>x</dof>
      <value lc="2">1.02728491145</value>
    </bc>
    <bc name="both_arms_raise_z_41" type="prescribed displacement" node_set="shirt_top_node_41">
      <dof>z</dof>
      <value lc="2">6.98846571981</value>
    </bc>
    <bc name="both_arms_raise_x_42" type="prescribed displacement" node_set="shirt_top_node_42">
      <dof>x</dof>
      <value lc="2">1.19324269325</value>
    </bc>
    <bc name="both_arms_raise_z_42" type="prescribed displacement" node_set="shirt_top_node_42">
      <dof>z</dof>
      <value lc="2">7.55625</value>
    </bc>
    <bc name="both_arms_raise_x_43" type="prescribed displacement" node_set="shirt_top_node_43">
      <dof>x</dof>
      <value lc="2">1.33878376174</value>
    </bc>
    <bc name="both_arms_raise_z_43" type="prescribed displacement" node_set="shirt_top_node_43">
      <dof>z</dof>
      <value lc="2">8.12403428019</value>
    </bc>
    <bc name="both_arms_raise_x_44" type="prescribed displacement" node_set="shirt_top_node_44">
      <dof>x</dof>
      <value lc="2">1.46141786889</value>
    </bc>
    <bc name="both_arms_raise_z_44" type="prescribed displacement" node_set="shirt_top_node_44">
      <dof>z</dof>
      <value lc="2">8.653125</value>
    </bc>
    <bc name="both_arms_raise_x_45" type="prescribed displacement" node_set="shirt_top_node_45">
      <dof>x</dof>
      <value lc="2">1.55904671111</value>
    </bc>
    <bc name="both_arms_raise_z_45" type="prescribed displacement" node_set="shirt_top_node_45">
      <dof>z</dof>
      <value lc="2">9.10746550123</value>
    </bc>
    <bc name="both_arms_raise_x_46" type="prescribed displacement" node_set="shirt_top_node_46">
      <dof>x</dof>
      <value lc="2">1.62999983186</value>
    </bc>
    <bc name="both_arms_raise_z_46" type="prescribed displacement" node_set="shirt_top_node_46">
      <dof>z</dof>
      <value lc="2">9.45609322955</value>
    </bc>
    <bc name="both_arms_raise_x_47" type="prescribed displacement" node_set="shirt_top_node_47">
      <dof>x</dof>
      <value lc="2">1.67306320357</value>
    </bc>
    <bc name="both_arms_raise_z_47" type="prescribed displacement" node_set="shirt_top_node_47">
      <dof>z</dof>
      <value lc="2">9.67524978142</value>
    </bc>
    <bc name="remove_y_translation" type="zero displacement" node_set="shirt_anchor_y">
      <y_dof>1</y_dof>
    </bc>
    <bc name="remove_x_translation" type="zero displacement" node_set="shirt_anchor_x">
      <x_dof>1</x_dof>
    </bc>
    <bc name="fixed_torso_axial" type="zero displacement" node_set="torso_all_nodes">
      <z_dof>1</z_dof>
    </bc>
    <bc name="expand_torso_x_0" type="prescribed displacement" node_set="torso_column_0">
      <dof>x</dof>
      <value lc="1">60</value>
    </bc>
    <bc name="expand_torso_y_0" type="prescribed displacement" node_set="torso_column_0">
      <dof>y</dof>
      <value lc="1">0</value>
    </bc>
    <bc name="expand_torso_x_1" type="prescribed displacement" node_set="torso_column_1">
      <dof>x</dof>
      <value lc="1">59.4866916824</value>
    </bc>
    <bc name="expand_torso_y_1" type="prescribed displacement" node_set="torso_column_1">
      <dof>y</dof>
      <value lc="1">7.8315715332</value>
    </bc>
    <bc name="expand_torso_x_2" type="prescribed displacement" node_set="torso_column_2">
      <dof>x</dof>
      <value lc="1">57.9555495773</value>
    </bc>
    <bc name="expand_torso_y_2" type="prescribed displacement" node_set="torso_column_2">
      <dof>y</dof>
      <value lc="1">15.5291427062</value>
    </bc>
    <bc name="expand_torso_x_3" type="prescribed displacement" node_set="torso_column_3">
      <dof>x</dof>
      <value lc="1">55.4327719507</value>
    </bc>
    <bc name="expand_torso_y_3" type="prescribed displacement" node_set="torso_column_3">
      <dof>y</dof>
      <value lc="1">22.9610059419</value>
    </bc>
    <bc name="expand_torso_x_4" type="prescribed displacement" node_set="torso_column_4">
      <dof>x</dof>
      <value lc="1">51.9615242271</value>
    </bc>
    <bc name="expand_torso_y_4" type="prescribed displacement" node_set="torso_column_4">
      <dof>y</dof>
      <value lc="1">30</value>
    </bc>
    <bc name="expand_torso_x_5" type="prescribed displacement" node_set="torso_column_5">
      <dof>x</dof>
      <value lc="1">47.6012004175</value>
    </bc>
    <bc name="expand_torso_y_5" type="prescribed displacement" node_set="torso_column_5">
      <dof>y</dof>
      <value lc="1">36.5256857405</value>
    </bc>
    <bc name="expand_torso_x_6" type="prescribed displacement" node_set="torso_column_6">
      <dof>x</dof>
      <value lc="1">42.4264068712</value>
    </bc>
    <bc name="expand_torso_y_6" type="prescribed displacement" node_set="torso_column_6">
      <dof>y</dof>
      <value lc="1">42.4264068712</value>
    </bc>
    <bc name="expand_torso_x_7" type="prescribed displacement" node_set="torso_column_7">
      <dof>x</dof>
      <value lc="1">36.5256857405</value>
    </bc>
    <bc name="expand_torso_y_7" type="prescribed displacement" node_set="torso_column_7">
      <dof>y</dof>
      <value lc="1">47.6012004175</value>
    </bc>
    <bc name="expand_torso_x_8" type="prescribed displacement" node_set="torso_column_8">
      <dof>x</dof>
      <value lc="1">30</value>
    </bc>
    <bc name="expand_torso_y_8" type="prescribed displacement" node_set="torso_column_8">
      <dof>y</dof>
      <value lc="1">51.9615242271</value>
    </bc>
    <bc name="expand_torso_x_9" type="prescribed displacement" node_set="torso_column_9">
      <dof>x</dof>
      <value lc="1">22.9610059419</value>
    </bc>
    <bc name="expand_torso_y_9" type="prescribed displacement" node_set="torso_column_9">
      <dof>y</dof>
      <value lc="1">55.4327719507</value>
    </bc>
    <bc name="expand_torso_x_10" type="prescribed displacement" node_set="torso_column_10">
      <dof>x</dof>
      <value lc="1">15.5291427062</value>
    </bc>
    <bc name="expand_torso_y_10" type="prescribed displacement" node_set="torso_column_10">
      <dof>y</dof>
      <value lc="1">57.9555495773</value>
    </bc>
    <bc name="expand_torso_x_11" type="prescribed displacement" node_set="torso_column_11">
      <dof>x</dof>
      <value lc="1">7.8315715332</value>
    </bc>
    <bc name="expand_torso_y_11" type="prescribed displacement" node_set="torso_column_11">
      <dof>y</dof>
      <value lc="1">59.4866916824</value>
    </bc>
    <bc name="expand_torso_x_12" type="prescribed displacement" node_set="torso_column_12">
      <dof>x</dof>
      <value lc="1">3.67394039744e-15</value>
    </bc>
    <bc name="expand_torso_y_12" type="prescribed displacement" node_set="torso_column_12">
      <dof>y</dof>
      <value lc="1">60</value>
    </bc>
    <bc name="expand_torso_x_13" type="prescribed displacement" node_set="torso_column_13">
      <dof>x</dof>
      <value lc="1">-7.8315715332</value>
    </bc>
    <bc name="expand_torso_y_13" type="prescribed displacement" node_set="torso_column_13">
      <dof>y</dof>
      <value lc="1">59.4866916824</value>
    </bc>
    <bc name="expand_torso_x_14" type="prescribed displacement" node_set="torso_column_14">
      <dof>x</dof>
      <value lc="1">-15.5291427062</value>
    </bc>
    <bc name="expand_torso_y_14" type="prescribed displacement" node_set="torso_column_14">
      <dof>y</dof>
      <value lc="1">57.9555495773</value>
    </bc>
    <bc name="expand_torso_x_15" type="prescribed displacement" node_set="torso_column_15">
      <dof>x</dof>
      <value lc="1">-22.9610059419</value>
    </bc>
    <bc name="expand_torso_y_15" type="prescribed displacement" node_set="torso_column_15">
      <dof>y</dof>
      <value lc="1">55.4327719507</value>
    </bc>
    <bc name="expand_torso_x_16" type="prescribed displacement" node_set="torso_column_16">
      <dof>x</dof>
      <value lc="1">-30</value>
    </bc>
    <bc name="expand_torso_y_16" type="prescribed displacement" node_set="torso_column_16">
      <dof>y</dof>
      <value lc="1">51.9615242271</value>
    </bc>
    <bc name="expand_torso_x_17" type="prescribed displacement" node_set="torso_column_17">
      <dof>x</dof>
      <value lc="1">-36.5256857405</value>
    </bc>
    <bc name="expand_torso_y_17" type="prescribed displacement" node_set="torso_column_17">
      <dof>y</dof>
      <value lc="1">47.6012004175</value>
    </bc>
    <bc name="expand_torso_x_18" type="prescribed displacement" node_set="torso_column_18">
      <dof>x</dof>
      <value lc="1">-42.4264068712</value>
    </bc>
    <bc name="expand_torso_y_18" type="prescribed displacement" node_set="torso_column_18">
      <dof>y</dof>
      <value lc="1">42.4264068712</value>
    </bc>
    <bc name="expand_torso_x_19" type="prescribed displacement" node_set="torso_column_19">
      <dof>x</dof>
      <value lc="1">-47.6012004175</value>
    </bc>
    <bc name="expand_torso_y_19" type="prescribed displacement" node_set="torso_column_19">
      <dof>y</dof>
      <value lc="1">36.5256857405</value>
    </bc>
    <bc name="expand_torso_x_20" type="prescribed displacement" node_set="torso_column_20">
      <dof>x</dof>
      <value lc="1">-51.9615242271</value>
    </bc>
    <bc name="expand_torso_y_20" type="prescribed displacement" node_set="torso_column_20">
      <dof>y</dof>
      <value lc="1">30</value>
    </bc>
    <bc name="expand_torso_x_21" type="prescribed displacement" node_set="torso_column_21">
      <dof>x</dof>
      <value lc="1">-55.4327719507</value>
    </bc>
    <bc name="expand_torso_y_21" type="prescribed displacement" node_set="torso_column_21">
      <dof>y</dof>
      <value lc="1">22.9610059419</value>
    </bc>
    <bc name="expand_torso_x_22" type="prescribed displacement" node_set="torso_column_22">
      <dof>x</dof>
      <value lc="1">-57.9555495773</value>
    </bc>
    <bc name="expand_torso_y_22" type="prescribed displacement" node_set="torso_column_22">
      <dof>y</dof>
      <value lc="1">15.5291427062</value>
    </bc>
    <bc name="expand_torso_x_23" type="prescribed displacement" node_set="torso_column_23">
      <dof>x</dof>
      <value lc="1">-59.4866916824</value>
    </bc>
    <bc name="expand_torso_y_23" type="prescribed displacement" node_set="torso_column_23">
      <dof>y</dof>
      <value lc="1">7.8315715332</value>
    </bc>
    <bc name="expand_torso_x_24" type="prescribed displacement" node_set="torso_column_24">
      <dof>x</dof>
      <value lc="1">-60</value>
    </bc>
    <bc name="expand_torso_y_24" type="prescribed displacement" node_set="torso_column_24">
      <dof>y</dof>
      <value lc="1">7.34788079488e-15</value>
    </bc>
    <bc name="expand_torso_x_25" type="prescribed displacement" node_set="torso_column_25">
      <dof>x</dof>
      <value lc="1">-59.4866916824</value>
    </bc>
    <bc name="expand_torso_y_25" type="prescribed displacement" node_set="torso_column_25">
      <dof>y</dof>
      <value lc="1">-7.8315715332</value>
    </bc>
    <bc name="expand_torso_x_26" type="prescribed displacement" node_set="torso_column_26">
      <dof>x</dof>
      <value lc="1">-57.9555495773</value>
    </bc>
    <bc name="expand_torso_y_26" type="prescribed displacement" node_set="torso_column_26">
      <dof>y</dof>
      <value lc="1">-15.5291427062</value>
    </bc>
    <bc name="expand_torso_x_27" type="prescribed displacement" node_set="torso_column_27">
      <dof>x</dof>
      <value lc="1">-55.4327719507</value>
    </bc>
    <bc name="expand_torso_y_27" type="prescribed displacement" node_set="torso_column_27">
      <dof>y</dof>
      <value lc="1">-22.9610059419</value>
    </bc>
    <bc name="expand_torso_x_28" type="prescribed displacement" node_set="torso_column_28">
      <dof>x</dof>
      <value lc="1">-51.9615242271</value>
    </bc>
    <bc name="expand_torso_y_28" type="prescribed displacement" node_set="torso_column_28">
      <dof>y</dof>
      <value lc="1">-30</value>
    </bc>
    <bc name="expand_torso_x_29" type="prescribed displacement" node_set="torso_column_29">
      <dof>x</dof>
      <value lc="1">-47.6012004175</value>
    </bc>
    <bc name="expand_torso_y_29" type="prescribed displacement" node_set="torso_column_29">
      <dof>y</dof>
      <value lc="1">-36.5256857405</value>
    </bc>
    <bc name="expand_torso_x_30" type="prescribed displacement" node_set="torso_column_30">
      <dof>x</dof>
      <value lc="1">-42.4264068712</value>
    </bc>
    <bc name="expand_torso_y_30" type="prescribed displacement" node_set="torso_column_30">
      <dof>y</dof>
      <value lc="1">-42.4264068712</value>
    </bc>
    <bc name="expand_torso_x_31" type="prescribed displacement" node_set="torso_column_31">
      <dof>x</dof>
      <value lc="1">-36.5256857405</value>
    </bc>
    <bc name="expand_torso_y_31" type="prescribed displacement" node_set="torso_column_31">
      <dof>y</dof>
      <value lc="1">-47.6012004175</value>
    </bc>
    <bc name="expand_torso_x_32" type="prescribed displacement" node_set="torso_column_32">
      <dof>x</dof>
      <value lc="1">-30</value>
    </bc>
    <bc name="expand_torso_y_32" type="prescribed displacement" node_set="torso_column_32">
      <dof>y</dof>
      <value lc="1">-51.9615242271</value>
    </bc>
    <bc name="expand_torso_x_33" type="prescribed displacement" node_set="torso_column_33">
      <dof>x</dof>
      <value lc="1">-22.9610059419</value>
    </bc>
    <bc name="expand_torso_y_33" type="prescribed displacement" node_set="torso_column_33">
      <dof>y</dof>
      <value lc="1">-55.4327719507</value>
    </bc>
    <bc name="expand_torso_x_34" type="prescribed displacement" node_set="torso_column_34">
      <dof>x</dof>
      <value lc="1">-15.5291427062</value>
    </bc>
    <bc name="expand_torso_y_34" type="prescribed displacement" node_set="torso_column_34">
      <dof>y</dof>
      <value lc="1">-57.9555495773</value>
    </bc>
    <bc name="expand_torso_x_35" type="prescribed displacement" node_set="torso_column_35">
      <dof>x</dof>
      <value lc="1">-7.8315715332</value>
    </bc>
    <bc name="expand_torso_y_35" type="prescribed displacement" node_set="torso_column_35">
      <dof>y</dof>
      <value lc="1">-59.4866916824</value>
    </bc>
    <bc name="expand_torso_x_36" type="prescribed displacement" node_set="torso_column_36">
      <dof>x</dof>
      <value lc="1">-1.10218211923e-14</value>
    </bc>
    <bc name="expand_torso_y_36" type="prescribed displacement" node_set="torso_column_36">
      <dof>y</dof>
      <value lc="1">-60</value>
    </bc>
    <bc name="expand_torso_x_37" type="prescribed displacement" node_set="torso_column_37">
      <dof>x</dof>
      <value lc="1">7.8315715332</value>
    </bc>
    <bc name="expand_torso_y_37" type="prescribed displacement" node_set="torso_column_37">
      <dof>y</dof>
      <value lc="1">-59.4866916824</value>
    </bc>
    <bc name="expand_torso_x_38" type="prescribed displacement" node_set="torso_column_38">
      <dof>x</dof>
      <value lc="1">15.5291427062</value>
    </bc>
    <bc name="expand_torso_y_38" type="prescribed displacement" node_set="torso_column_38">
      <dof>y</dof>
      <value lc="1">-57.9555495773</value>
    </bc>
    <bc name="expand_torso_x_39" type="prescribed displacement" node_set="torso_column_39">
      <dof>x</dof>
      <value lc="1">22.9610059419</value>
    </bc>
    <bc name="expand_torso_y_39" type="prescribed displacement" node_set="torso_column_39">
      <dof>y</dof>
      <value lc="1">-55.4327719507</value>
    </bc>
    <bc name="expand_torso_x_40" type="prescribed displacement" node_set="torso_column_40">
      <dof>x</dof>
      <value lc="1">30</value>
    </bc>
    <bc name="expand_torso_y_40" type="prescribed displacement" node_set="torso_column_40">
      <dof>y</dof>
      <value lc="1">-51.9615242271</value>
    </bc>
    <bc name="expand_torso_x_41" type="prescribed displacement" node_set="torso_column_41">
      <dof>x</dof>
      <value lc="1">36.5256857405</value>
    </bc>
    <bc name="expand_torso_y_41" type="prescribed displacement" node_set="torso_column_41">
      <dof>y</dof>
      <value lc="1">-47.6012004175</value>
    </bc>
    <bc name="expand_torso_x_42" type="prescribed displacement" node_set="torso_column_42">
      <dof>x</dof>
      <value lc="1">42.4264068712</value>
    </bc>
    <bc name="expand_torso_y_42" type="prescribed displacement" node_set="torso_column_42">
      <dof>y</dof>
      <value lc="1">-42.4264068712</value>
    </bc>
    <bc name="expand_torso_x_43" type="prescribed displacement" node_set="torso_column_43">
      <dof>x</dof>
      <value lc="1">47.6012004175</value>
    </bc>
    <bc name="expand_torso_y_43" type="prescribed displacement" node_set="torso_column_43">
      <dof>y</dof>
      <value lc="1">-36.5256857405</value>
    </bc>
    <bc name="expand_torso_x_44" type="prescribed displacement" node_set="torso_column_44">
      <dof>x</dof>
      <value lc="1">51.9615242271</value>
    </bc>
    <bc name="expand_torso_y_44" type="prescribed displacement" node_set="torso_column_44">
      <dof>y</dof>
      <value lc="1">-30</value>
    </bc>
    <bc name="expand_torso_x_45" type="prescribed displacement" node_set="torso_column_45">
      <dof>x</dof>
      <value lc="1">55.4327719507</value>
    </bc>
    <bc name="expand_torso_y_45" type="prescribed displacement" node_set="torso_column_45">
      <dof>y</dof>
      <value lc="1">-22.9610059419</value>
    </bc>
    <bc name="expand_torso_x_46" type="prescribed displacement" node_set="torso_column_46">
      <dof>x</dof>
      <value lc="1">57.9555495773</value>
    </bc>
    <bc name="expand_torso_y_46" type="prescribed displacement" node_set="torso_column_46">
      <dof>y</dof>
      <value lc="1">-15.5291427062</value>
    </bc>
    <bc name="expand_torso_x_47" type="prescribed displacement" node_set="torso_column_47">
      <dof>x</dof>
      <value lc="1">59.4866916824</value>
    </bc>
    <bc name="expand_torso_y_47" type="prescribed displacement" node_set="torso_column_47">
      <dof>y</dof>
      <value lc="1">-7.8315715332</value>
    </bc>
  </Boundary>
  <Contact>
    <contact name="shirt_on_torso" type="sliding-facet-on-facet" surface_pair="shirt_torso_pair">
      <auto_penalty>0</auto_penalty>
      <penalty>0.001</penalty>
      <two_pass>0</two_pass>
      <laugon>1</laugon>
      <tolerance>0.1</tolerance>
      <gaptol>0.01</gaptol>
      <minaug>1</minaug>
      <maxaug>5</maxaug>
      <search_radius>20.0</search_radius>
      <search_tol>0.1</search_tol>
    </contact>
  </Contact>
  <LoadData>
    <load_controller id="1" type="loadcurve">
      <interpolate>LINEAR</interpolate>
      <points>
        <pt>0,0</pt>
        <pt>0.5,1</pt>
        <pt>1,1</pt>
      </points>
    </load_controller>
    <load_controller id="2" type="loadcurve">
      <interpolate>LINEAR</interpolate>
      <points>
        <pt>0,0</pt>
        <pt>0.5,0</pt>
        <pt>1,1</pt>
      </points>
    </load_controller>
  </LoadData>
  <Output>
    <plotfile type="febio" file="results/garment_mesh_coarse_movement025.xplt">
      <var type="displacement" />
      <var type="stress" />
      <var type="Lagrange strain" />
      <var type="shell thickness" />
      <var type="contact gap" />
      <var type="contact pressure" />
    </plotfile>
    <logfile file="results/garment_mesh_coarse_movement025.log">
      <node_data data="x;y;z" name="shirt_final_coordinates" node_set="shirt_all_nodes" delim="," />
      <face_data data="contact gap;contact pressure" name="shirt_contact_data" surface="shirt_on_torso_primary" delim="," />
    </logfile>
  </Output>
</febio_spec>