<?xml version='1.0' encoding='utf-8'?>
<febio_spec version="4.0">
  <Module type="solid" />
  <Control>
    <analysis>STATIC</analysis>
    <time_steps>20</time_steps>
    <step_size>0.05</step_size>
    <plot_level>PLOT_MUST_POINTS</plot_level>
    <solver type="solid">
      <max_refs>35</max_refs>
      <diverge_reform>1</diverge_reform>
      <reform_each_time_step>1</reform_each_time_step>
      <symmetric_stiffness>0</symmetric_stiffness>
      <dtol>0.02</dtol>
      <etol>0.0001</etol>
      <rtol>0.001</rtol>
    </solver>
    <time_stepper>
      <dtmin>1e-05</dtmin>
      <dtmax>0.05</dtmax>
      <max_retries>15</max_retries>
      <opt_iter>10</opt_iter>
    </time_stepper>
  </Control>
  <Material>
    <material id="1" name="textile_provisional" type="neo-Hookean">
      <E>0.8</E>
      <v>0.3</v>
    </material>
    <material id="2" name="torso_fixed" type="neo-Hookean">
      <E>0.8</E>
      <v>0.3</v>
    </material>
  </Material>
  <Mesh>
    <Nodes name="shirt_nodes">
      <node id="1">128.5,0,0</node>
      <node id="2">128.103877,8.2774346,0</node>
      <node id="3">126.917952,16.5038361,0</node>
      <node id="4">124.949535,24.6284859,0</node>
      <node id="5">122.210762,32.6012929,0</node>
      <node id="6">118.71852,40.3731021,0</node>
      <node id="7">114.494338,47.8959977,0</node>
      <node id="8">109.564261,55.1235986,0</node>
      <node id="9">103.958684,62.0113441,0</node>
      <node id="10">97.7121666,68.5167691,0</node>
      <node id="11">90.8632214,74.5997654,0</node>
      <node id="12">83.4540742,80.2228294,0</node>
      <node id="13">75.5304049,85.3512929,0</node>
      <node id="14">67.1410656,89.9535373,0</node>
      <node id="15">58.3377792,94.0011883,0</node>
      <node id="16">49.1748211,97.4692907,0</node>
      <node id="17">39.7086838,100.336462,0</node>
      <node id="18">29.9977293,102.585027,0</node>
      <node id="19">20.1018288,104.20112,0</node>
      <node id="20">10.0819938,105.174779,0</node>
<!-- ... 2700 like lines cut -->
    </Nodes>
    <Nodes name="torso_nodes">
      <node id="2721">128,0,0</node>
      <node id="2722">127.605419,8.23820505,0</node>
      <node id="2723">126.424108,16.4256188,0</node>
      <node id="2724">124.46335,24.5117632,0</node>
      <node id="2725">121.735234,32.4467844,0</node>
      <node id="2726">118.25658,40.1817604,0</node>
      <node id="2727">114.048835,47.6690025,0</node>
      <node id="2728">109.137941,54.8623493,0</node>
      <node id="2729">103.554175,61.7174515,0</node>
      <node id="2730">97.3319636,68.1920451,0</node>
      <node id="2731">90.509668,74.246212,0</node>
      <node id="2732">83.1293502,79.8426264,0</node>
      <node id="2733">75.2365123,84.9467844,0</node>
      <node id="2734">66.8798163,89.5272173,0</node>
      <node id="2735">58.110784,93.555685,0</node>
      <node id="2736">48.9834793,97.0073509,0</node>
      <node id="2737">39.5541753,99.8609342,0</node>
      <node id="2738">29.8810066,102.098842,0</node>
      <node id="2739">20.0236115,103.707276,0</node>
      <node id="2740">10.0427643,104.67632,0</node>
<!-- ... 2700 like lines cut -->
    </Nodes>
    <Elements type="quad4" name="shirt_back">
      <elem id="1">1,2,82,81</elem>
      <elem id="2">2,3,83,82</elem>
      <elem id="3">3,4,84,83</elem>
      <elem id="4">4,5,85,84</elem>
      <elem id="5">5,6,86,85</elem>
      <elem id="6">6,7,87,86</elem>
      <elem id="7">7,8,88,87</elem>
      <elem id="8">8,9,89,88</elem>
      <elem id="9">9,10,90,89</elem>
      <elem id="10">10,11,91,90</elem>
      <elem id="11">11,12,92,91</elem>
      <elem id="12">12,13,93,92</elem>
      <elem id="13">13,14,94,93</elem>
      <elem id="14">14,15,95,94</elem>
      <elem id="15">15,16,96,95</elem>
      <elem id="16">16,17,97,96</elem>
      <elem id="17">17,18,98,97</elem>
      <elem id="18">18,19,99,98</elem>
      <elem id="19">19,20,100,99</elem>
      <elem id="20">20,21,101,100</elem>
<!-- ... 1300 like lines cut -->
    </Elements>
    <Elements type="quad4" name="shirt_front">
      <elem id="1321">41,42,122,121</elem>
      <elem id="1322">42,43,123,122</elem>
      <elem id="1323">43,44,124,123</elem>
      <elem id="1324">44,45,125,124</elem>
      <elem id="1325">45,46,126,125</elem>
      <elem id="1326">46,47,127,126</elem>
      <elem id="1327">47,48,128,127</elem>
      <elem id="1328">48,49,129,128</elem>
      <elem id="1329">49,50,130,129</elem>
      <elem id="1330">50,51,131,130</elem>
      <elem id="1331">51,52,132,131</elem>
      <elem id="1332">52,53,133,132</elem>
      <elem id="1333">53,54,134,133</elem>
      <elem id="1334">54,55,135,134</elem>
      <elem id="1335">55,56,136,135</elem>
      <elem id="1336">56,57,137,136</elem>
      <elem id="1337">57,58,138,137</elem>
      <elem id="1338">58,59,139,138</elem>
      <elem id="1339">59,60,140,139</elem>
      <elem id="1340">60,61,141,140</elem>
<!-- ... 1300 like lines cut -->
    </Elements>
    <Elements type="quad4" name="torso_surface_elements">
      <elem id="2641">2721,2722,2802,2801</elem>
      <elem id="2642">2722,2723,2803,2802</elem>
      <elem id="2643">2723,2724,2804,2803</elem>
      <elem id="2644">2724,2725,2805,2804</elem>
      <elem id="2645">2725,2726,2806,2805</elem>
      <elem id="2646">2726,2727,2807,2806</elem>
      <elem id="2647">2727,2728,2808,2807</elem>
      <elem id="2648">2728,2729,2809,2808</elem>
      <elem id="2649">2729,2730,2810,2809</elem>
      <elem id="2650">2730,2731,2811,2810</elem>
      <elem id="2651">2731,2732,2812,2811</elem>
      <elem id="2652">2732,2733,2813,2812</elem>
      <elem id="2653">2733,2734,2814,2813</elem>
      <elem id="2654">2734,2735,2815,2814</elem>
      <elem id="2655">2735,2736,2816,2815</elem>
      <elem id="2656">2736,2737,2817,2816</elem>
      <elem id="2657">2737,2738,2818,2817</elem>
      <elem id="2658">2738,2739,2819,2818</elem>
      <elem id="2659">2739,2740,2820,2819</elem>
      <elem id="2660">2740,2741,2821,2820</elem>
<!-- ... 2620 like lines cut -->
    </Elements>
    <NodeSet name="shirt_top_ring">2641,2642,2643,2644,2645,2646,2647,2648,2649,2650,2651,2652,2653,2654,2655,2656,2657,2658,2659,2660,2661,2662,2663,2664,2665,2666,2667,2668,2669,2670,2671,2672,2673,2674,2675,2676,2677,2678,2679,2680,2681,2682,2683,2684,2685,2686,2687,2688,2689,2690,2691,2692,2693,2694,2695,2696,2697,2698,2699,2700,2701,2702,2703,2704,2705,2706,2707,2708,2709,2710,2711,2712,2713,
    <NodeSet name="shirt_anchor_y">2641</NodeSet>
    <NodeSet name="shirt_anchor_x">2661</NodeSet>
    <NodeSet name="shirt_all_nodes">1,2,3,4,5,6,7,8,9,10,11,12,13,14,15,16,17,18,19,20,21,22,23,24,25,26,27,28,29,30,31,32,33,34,35,36,37,38,39,40,41,42,43,44,45,46,47,48,49,50,51,52,53,54,55,56,57,58,59,60,61,62,63,64,65,66,67,68,69,70,71,72,73,74,75,76,77,78,79,80,81,82,83,84,85,86,87,88,89,90,91,92,93,94,95,96,97,98,99,100,101,102,103,104,105,106,107,108,109,110,111,112,113,114,115,116,117,118,
    <NodeSet name="torso_all_nodes">2721,2722,2723,2724,2725,2726,2727,2728,2729,2730,2731,2732,2733,2734,2735,2736,2737,2738,2739,2740,2741,2742,2743,2744,2745,2746,2747,2748,2749,2750,2751,2752,2753,2754,2755,2756,2757,2758,2759,2760,2761,2762,2763,2764,2765,2766,2767,2768,2769,2770,2771,2772,2773,2774,2775,2776,2777,2778,2779,2780,2781,2782,2783,2784,2785,2786,2787,2788,2789,2790,2791,2792,2793
    <NodeSet name="torso_column_0">2721,2801,2881,2961,3041,3121,3201,3281,3361,3441,3521,3601,3681,3761,3841,3921,4001,4081,4161,4241,4321,4401,4481,4561,4641,4721,4801,4881,4961,5041,5121,5201,5281,5361</NodeSet>
    <NodeSet name="torso_column_1">2722,2802,2882,2962,3042,3122,3202,3282,3362,3442,3522,3602,3682,3762,3842,3922,4002,4082,4162,4242,4322,4402,4482,4562,4642,4722,4802,4882,4962,5042,5122,5202,5282,5362</NodeSet>
    <NodeSet name="torso_column_2">2723,2803,2883,2963,3043,3123,3203,3283,3363,3443,3523,3603,3683,3763,3843,3923,4003,4083,4163,4243,4323,4403,4483,4563,4643,4723,4803,4883,4963,5043,5123,5203,5283,5363</NodeSet>
    <NodeSet name="torso_column_3">2724,2804,2884,2964,3044,3124,3204,3284,3364,3444,3524,3604,3684,3764,3844,3924,4004,4084,4164,4244,4324,4404,4484,4564,4644,4724,4804,4884,4964,5044,5124,5204,5284,5364</NodeSet>
    <NodeSet name="torso_column_4">2725,2805,2885,2965,3045,3125,3205,3285,3365,3445,3525,3605,3685,3765,3845,3925,4005,4085,4165,4245,4325,4405,4485,4565,4645,4725,4805,4885,4965,5045,5125,5205,5285,5365</NodeSet>
    <NodeSet name="torso_column_5">2726,2806,2886,2966,3046,3126,3206,3286,3366,3446,3526,3606,3686,3766,3846,3926,4006,4086,4166,4246,4326,4406,4486,4566,4646,4726,4806,4886,4966,5046,5126,5206,5286,5366</NodeSet>
    <NodeSet name="torso_column_6">2727,2807,2887,2967,3047,3127,3207,3287,3367,3447,3527,3607,3687,3767,3847,3927,4007,4087,4167,4247,4327,4407,4487,4567,4647,4727,4807,4887,4967,5047,5127,5207,5287,5367</NodeSet>
    <NodeSet name="torso_column_7">2728,2808,2888,2968,3048,3128,3208,3288,3368,3448,3528,3608,3688,3768,3848,3928,4008,4088,4168,4248,4328,4408,4488,4568,4648,4728,4808,4888,4968,5048,5128,5208,5288,5368</NodeSet>
    <NodeSet name="torso_column_8">2729,2809,2889,2969,3049,3129,3209,3289,3369,3449,3529,3609,3689,3769,3849,3929,4009,4089,4169,4249,4329,4409,4489,4569,4649,4729,4809,4889,4969,5049,5129,5209,5289,5369</NodeSet>
    <NodeSet name="torso_column_9">2730,2810,2890,2970,3050,3130,3210,3290,3370,3450,3530,3610,3690,3770,3850,3930,4010,4090,4170,4250,4330,4410,4490,4570,4650,4730,4810,4890,4970,5050,5130,5210,5290,5370</NodeSet>
    <NodeSet name="torso_column_10">2731,2811,2891,2971,3051,3131,3211,3291,3371,3451,3531,3611,3691,3771,3851,3931,4011,4091,4171,4251,4331,4411,4491,4571,4651,4731,4811,4891,4971,5051,5131,5211,5291,5371</NodeSet>
    <NodeSet name="torso_column_11">2732,2812,2892,2972,3052,3132,3212,3292,3372,3452,3532,3612,3692,3772,3852,3932,4012,4092,4172,4252,4332,4412,4492,4572,4652,4732,4812,4892,4972,5052,5132,5212,5292,5372</NodeSet>
    <NodeSet name="torso_column_12">2733,2813,2893,2973,3053,3133,3213,3293,3373,3453,3533,3613,3693,3773,3853,3933,4013,4093,4173,4253,4333,4413,4493,4573,4653,4733,4813,4893,4973,5053,5133,5213,5293,5373</NodeSet>
    <NodeSet name="torso_column_13">2734,2814,2894,2974,3054,3134,3214,3294,3374,3454,3534,3614,3694,3774,3854,3934,4014,4094,4174,4254,4334,4414,4494,4574,4654,4734,4814,4894,4974,5054,5134,5214,5294,5374</NodeSet>
    <NodeSet name="torso_column_14">2735,2815,2895,2975,3055,3135,3215,3295,3375,3455,3535,3615,3695,3775,3855,3935,4015,4095,4175,4255,4335,4415,4495,4575,4655,4735,4815,4895,4975,5055,5135,5215,5295,5375</NodeSet>
    <NodeSet name="torso_column_15">2736,2816,2896,2976,3056,3136,3216,3296,3376,3456,3536,3616,3696,3776,3856,3936,4016,4096,4176,4256,4336,4416,4496,4576,4656,4736,4816,4896,4976,5056,5136,5216,5296,5376</NodeSet>
    <NodeSet name="torso_column_16">2737,2817,2897,2977,3057,3137,3217,3297,3377,3457,3537,3617,3697,3777,3857,3937,4017,4097,4177,4257,4337,4417,4497,4577,4657,4737,4817,4897,4977,5057,5137,5217,5297,5377</NodeSet>
    <NodeSet name="torso_column_17">2738,2818,2898,2978,3058,3138,3218,3298,3378,3458,3538,3618,3698,3778,3858,3938,4018,4098,4178,4258,4338,4418,4498,4578,4658,4738,4818,4898,4978,5058,5138,5218,5298,5378</NodeSet>
    <NodeSet name="torso_column_18">2739,2819,2899,2979,3059,3139,3219,3299,3379,3459,3539,3619,3699,3779,3859,3939,4019,4099,4179,4259,4339,4419,4499,4579,4659,4739,4819,4899,4979,5059,5139,5219,5299,5379</NodeSet>
    <NodeSet name="torso_column_19">2740,2820,2900,2980,3060,3140,3220,3300,3380,3460,3540,3620,3700,3780,3860,3940,4020,4100,4180,4260,4340,4420,4500,4580,4660,4740,4820,4900,4980,5060,5140,5220,5300,5380</NodeSet>
<!-- ... 60 like lines cut -->
    <ElementSet name="shirt_all">1,2,3,4,5,6,7,8,9,10,11,12,13,14,15,16,17,18,19,20,21,22,23,24,25,26,27,28,29,30,31,32,33,34,35,36,37,38,39,40,41,42,43,44,45,46,47,48,49,50,51,52,53,54,55,56,57,58,59,60,61,62,63,64,65,66,67,68,69,70,71,72,73,74,75,76,77,78,79,80,81,82,83,84,85,86,87,88,89,90,91,92,93,94,95,96,97,98,99,100,101,102,103,104,105,106,107,108,109,110,111,112,113,114,115,116,117,118,119
    <Surface name="shirt_on_torso_primary">
      <quad4 id="1">1,81,82,2</quad4>
      <quad4 id="2">2,82,83,3</quad4>
      <quad4 id="3">3,83,84,4</quad4>
      <quad4 id="4">4,84,85,5</quad4>
      <quad4 id="5">5,85,86,6</quad4>
      <quad4 id="6">6,86,87,7</quad4>
      <quad4 id="7">7,87,88,8</quad4>
      <quad4 id="8">8,88,89,9</quad4>
      <quad4 id="9">9,89,90,10</quad4>
      <quad4 id="10">10,90,91,11</quad4>
      <quad4 id="11">11,91,92,12</quad4>
      <quad4 id="12">12,92,93,13</quad4>
      <quad4 id="13">13,93,94,14</quad4>
      <quad4 id="14">14,94,95,15</quad4>
      <quad4 id="15">15,95,96,16</quad4>
      <quad4 id="16">16,96,97,17</quad4>
      <quad4 id="17">17,97,98,18</quad4>
      <quad4 id="18">18,98,99,19</quad4>
      <quad4 id="19">19,99,100,20</quad4>
      <quad4 id="20">20,100,101,21</quad4>
<!-- ... 2620 like lines cut -->
    </Surface>
    <Surface name="shirt_on_torso_secondary">
      <quad4 id="1">2721,2722,2802,2801</quad4>
      <quad4 id="2">2722,2723,2803,2802</quad4>
      <quad4 id="3">2723,2724,2804,2803</quad4>
      <quad4 id="4">2724,2725,2805,2804</quad4>
      <quad4 id="5">2725,2726,2806,2805</quad4>
      <quad4 id="6">2726,2727,2807,2806</quad4>
      <quad4 id="7">2727,2728,2808,2807</quad4>
      <quad4 id="8">2728,2729,2809,2808</quad4>
      <quad4 id="9">2729,2730,2810,2809</quad4>
      <quad4 id="10">2730,2731,2811,2810</quad4>
      <quad4 id="11">2731,2732,2812,2811</quad4>
      <quad4 id="12">2732,2733,2813,2812</quad4>
      <quad4 id="13">2733,2734,2814,2813</quad4>
      <quad4 id="14">2734,2735,2815,2814</quad4>
      <quad4 id="15">2735,2736,2816,2815</quad4>
      <quad4 id="16">2736,2737,2817,2816</quad4>
      <quad4 id="17">2737,2738,2818,2817</quad4>
      <quad4 id="18">2738,2739,2819,2818</quad4>
      <quad4 id="19">2739,2740,2820,2819</quad4>
      <quad4 id="20">2740,2741,2821,2820</quad4>
<!-- ... 2620 like lines cut -->
    </Surface>
    <Surface name="shirt_pressure_surface">
      <quad4 id="1">1,2,82,81</quad4>
      <quad4 id="2">2,3,83,82</quad4>
      <quad4 id="3">3,4,84,83</quad4>
      <quad4 id="4">4,5,85,84</quad4>
      <quad4 id="5">5,6,86,85</quad4>
      <quad4 id="6">6,7,87,86</quad4>
      <quad4 id="7">7,8,88,87</quad4>
      <quad4 id="8">8,9,89,88</quad4>
      <quad4 id="9">9,10,90,89</quad4>
      <quad4 id="10">10,11,91,90</quad4>
      <quad4 id="11">11,12,92,91</quad4>
      <quad4 id="12">12,13,93,92</quad4>
      <quad4 id="13">13,14,94,93</quad4>
      <quad4 id="14">14,15,95,94</quad4>
      <quad4 id="15">15,16,96,95</quad4>
      <quad4 id="16">16,17,97,96</quad4>
      <quad4 id="17">17,18,98,97</quad4>
      <quad4 id="18">18,19,99,98</quad4>
      <quad4 id="19">19,20,100,99</quad4>
      <quad4 id="20">20,21,101,100</quad4>
<!-- ... 2620 like lines cut -->
    </Surface>
    <SurfacePair name="shirt_torso_pair">
      <primary>shirt_on_torso_primary</primary>
      <secondary>shirt_on_torso_secondary</secondary>
    </SurfacePair>
  </Mesh>
  <MeshDomains>
    <ShellDomain name="shirt_front" mat="textile_provisional" type="elastic-shell">
      <shell_thickness>1.6</shell_thickness>
    </ShellDomain>
    <ShellDomain name="shirt_back" mat="textile_provisional" type="elastic-shell">
      <shell_thickness>1.6</shell_thickness>
    </ShellDomain>
    <ShellDomain name="torso_surface_elements" mat="torso_fixed" type="elastic-shell">
      <shell_thickness>1.0</shell_thickness>
    </ShellDomain>
  </MeshDomains>
  <Boundary>
    <bc name="support_top_vertical" type="zero displacement" node_set="shirt_top_ring">
      <z_dof>1</z_dof>
    </bc>
    <bc name="remove_y_translation" type="zero displacement" node_set="shirt_anchor_y">
      <y_dof>1</y_dof>
    </bc>
    <bc name="remove_x_translation" type="zero displacement" node_set="shirt_anchor_x">
      <x_dof>1</x_dof>
    </bc>
    <bc name="fixed_torso_axial" type="zero displacement" node_set="torso_all_nodes">
      <z_dof>1</z_dof>
    </bc>
    <bc name="expand_torso_x_0" type="prescribed displacement" node_set="torso_column_0">
      <dof>x</dof>
      <value lc="1">60</value>
    </bc>
    <bc name="expand_torso_y_0" type="prescribed displacement" node_set="torso_column_0">
      <dof>y</dof>
      <value lc="1">0</value>
    </bc>
    <bc name="expand_torso_x_1" type="prescribed displacement" node_set="torso_column_1">
      <dof>x</dof>
      <value lc="1">59.815040024</value>
    </bc>
    <bc name="expand_torso_y_1" type="prescribed displacement" node_set="torso_column_1">
      <dof>y</dof>
      <value lc="1">4.70754574367</value>
    </bc>
    <bc name="expand_torso_x_2" type="prescribed displacement" node_set="torso_column_2">
      <dof>x</dof>
      <value lc="1">59.2613004357</value>
    </bc>
    <bc name="expand_torso_y_2" type="prescribed displacement" node_set="torso_column_2">
      <dof>y</dof>
      <value lc="1">9.38606790241</value>
    </bc>
    <bc name="expand_torso_x_3" type="prescribed displacement" node_set="torso_column_3">
      <dof>x</dof>
      <value lc="1">58.3421952239</value>
    </bc>
    <bc name="expand_torso_y_3" type="prescribed displacement" node_set="torso_column_3">
      <dof>y</dof>
      <value lc="1">14.0067218314</value>
    </bc>
    <bc name="expand_torso_x_4" type="prescribed displacement" node_set="torso_column_4">
      <dof>x</dof>
      <value lc="1">57.0633909777</value>
    </bc>
    <bc name="expand_torso_y_4" type="prescribed displacement" node_set="torso_column_4">
      <dof>y</dof>
      <value lc="1">18.5410196625</value>
    </bc>
    <bc name="expand_torso_x_5" type="prescribed displacement" node_set="torso_column_5">
      <dof>x</dof>
      <value lc="1">55.4327719507</value>
    </bc>
    <bc name="expand_torso_y_5" type="prescribed displacement" node_set="torso_column_5">
      <dof>y</dof>
      <value lc="1">22.9610059419</value>
    </bc>
    <bc name="expand_torso_x_6" type="prescribed displacement" node_set="torso_column_6">
      <dof>x</dof>
      <value lc="1">53.4603914513</value>
    </bc>
    <bc name="expand_torso_y_6" type="prescribed displacement" node_set="torso_column_6">
      <dof>y</dof>
      <value lc="1">27.2394299844</value>
    </bc>
    <bc name="expand_torso_x_7" type="prescribed displacement" node_set="torso_column_7">
      <dof>x</dof>
      <value lc="1">51.1584098612</value>
    </bc>
    <bc name="expand_torso_y_7" type="prescribed displacement" node_set="torso_column_7">
      <dof>y</dof>
      <value lc="1">31.349913883</value>
    </bc>
    <bc name="expand_torso_x_8" type="prescribed displacement" node_set="torso_column_8">
      <dof>x</dof>
      <value lc="1">48.5410196625</value>
    </bc>
    <bc name="expand_torso_y_8" type="prescribed displacement" node_set="torso_column_8">
      <dof>y</dof>
      <value lc="1">35.2671151375</value>
    </bc>
    <bc name="expand_torso_x_9" type="prescribed displacement" node_set="torso_column_9">
      <dof>x</dof>
      <value lc="1">45.624357936</value>
    </bc>
    <bc name="expand_torso_y_9" type="prescribed displacement" node_set="torso_column_9">
      <dof>y</dof>
      <value lc="1">38.9668828998</value>
    </bc>
    <bc name="expand_torso_x_10" type="prescribed displacement" node_set="torso_column_10">
      <dof>x</dof>
      <value lc="1">42.4264068712</value>
    </bc>
    <bc name="expand_torso_y_10" type="prescribed displacement" node_set="torso_column_10">
      <dof>y</dof>
      <value lc="1">42.4264068712</value>
    </bc>
    <bc name="expand_torso_x_11" type="prescribed displacement" node_set="torso_column_11">
      <dof>x</dof>
      <value lc="1">38.9668828998</value>
    </bc>
    <bc name="expand_torso_y_11" type="prescribed displacement" node_set="torso_column_11">
      <dof>y</dof>
      <value lc="1">45.624357936</value>
    </bc>
    <bc name="expand_torso_x_12" type="prescribed displacement" node_set="torso_column_12">
      <dof>x</dof>
      <value lc="1">35.2671151375</value>
    </bc>
    <bc name="expand_torso_y_12" type="prescribed displacement" node_set="torso_column_12">
      <dof>y</dof>
      <value lc="1">48.5410196625</value>
    </bc>
    <bc name="expand_torso_x_13" type="prescribed displacement" node_set="torso_column_13">
      <dof>x</dof>
      <value lc="1">31.349913883</value>
    </bc>
    <bc name="expand_torso_y_13" type="prescribed displacement" node_set="torso_column_13">
      <dof>y</dof>
      <value lc="1">51.1584098612</value>
    </bc>
    <bc name="expand_torso_x_14" type="prescribed displacement" node_set="torso_column_14">
      <dof>x</dof>
      <value lc="1">27.2394299844</value>
    </bc>
    <bc name="expand_torso_y_14" type="prescribed displacement" node_set="torso_column_14">
      <dof>y</dof>
      <value lc="1">53.4603914513</value>
    </bc>
    <bc name="expand_torso_x_15" type="prescribed displacement" node_set="torso_column_15">
      <dof>x</dof>
      <value lc="1">22.9610059419</value>
    </bc>
    <bc name="expand_torso_y_15" type="prescribed displacement" node_set="torso_column_15">
      <dof>y</dof>
      <value lc="1">55.4327719507</value>
    </bc>
    <bc name="expand_torso_x_16" type="prescribed displacement" node_set="torso_column_16">
      <dof>x</dof>
      <value lc="1">18.5410196625</value>
    </bc>
    <bc name="expand_torso_y_16" type="prescribed displacement" node_set="torso_column_16">
      <dof>y</dof>
      <value lc="1">57.0633909777</value>
    </bc>
    <bc name="expand_torso_x_17" type="prescribed displacement" node_set="torso_column_17">
      <dof>x</dof>
      <value lc="1">14.0067218314</value>
    </bc>
    <bc name="expand_torso_y_17" type="prescribed displacement" node_set="torso_column_17">
      <dof>y</dof>
      <value lc="1">58.3421952239</value>
    </bc>
    <bc name="expand_torso_x_18" type="prescribed displacement" node_set="torso_column_18">
      <dof>x</dof>
      <value lc="1">9.38606790241</value>
    </bc>
    <bc name="expand_torso_y_18" type="prescribed displacement" node_set="torso_column_18">
      <dof>y</dof>
      <value lc="1">59.2613004357</value>
    </bc>
    <bc name="expand_torso_x_19" type="prescribed displacement" node_set="torso_column_19">
      <dof>x</dof>
      <value lc="1">4.70754574367</value>
    </bc>
    <bc name="expand_torso_y_19" type="prescribed displacement" node_set="torso_column_19">
      <dof>y</dof>
      <value lc="1">59.815040024</value>
    </bc>
    <bc name="expand_torso_x_20" type="prescribed displacement" node_set="torso_column_20">
      <dof>x</dof>
      <value lc="1">3.67394039744e-15</value>
    </bc>
    <bc name="expand_torso_y_20" type="prescribed displacement" node_set="torso_column_20">
      <dof>y</dof>
      <value lc="1">60</value>
    </bc>
    <bc name="expand_torso_x_21" type="prescribed displacement" node_set="torso_column_21">
      <dof>x</dof>
      <value lc="1">-4.70754574367</value>
    </bc>
    <bc name="expand_torso_y_21" type="prescribed displacement" node_set="torso_column_21">
      <dof>y</dof>
      <value lc="1">59.815040024</value>
    </bc>
    <bc name="expand_torso_x_22" type="prescribed displacement" node_set="torso_column_22">
      <dof>x</dof>
      <value lc="1">-9.38606790241</value>
    </bc>
    <bc name="expand_torso_y_22" type="prescribed displacement" node_set="torso_column_22">
      <dof>y</dof>
      <value lc="1">59.2613004357</value>
    </bc>
    <bc name="expand_torso_x_23" type="prescribed displacement" node_set="torso_column_23">
      <dof>x</dof>
      <value lc="1">-14.0067218314</value>
    </bc>
    <bc name="expand_torso_y_23" type="prescribed displacement" node_set="torso_column_23">
      <dof>y</dof>
      <value lc="1">58.3421952239</value>
    </bc>
    <bc name="expand_torso_x_24" type="prescribed displacement" node_set="torso_column_24">
      <dof>x</dof>
      <value lc="1">-18.5410196625</value>
    </bc>
    <bc name="expand_torso_y_24" type="prescribed displacement" node_set="torso_column_24">
      <dof>y</dof>
      <value lc="1">57.0633909777</value>
    </bc>
    <bc name="expand_torso_x_25" type="prescribed displacement" node_set="torso_column_25">
      <dof>x</dof>
      <value lc="1">-22.9610059419</value>
    </bc>
    <bc name="expand_torso_y_25" type="prescribed displacement" node_set="torso_column_25">
      <dof>y</dof>
      <value lc="1">55.4327719507</value>
    </bc>
    <bc name="expand_torso_x_26" type="prescribed displacement" node_set="torso_column_26">
      <dof>x</dof>
      <value lc="1">-27.2394299844</value>
    </bc>
    <bc name="expand_torso_y_26" type="prescribed displacement" node_set="torso_column_26">
      <dof>y</dof>
      <value lc="1">53.4603914513</value>
    </bc>
    <bc name="expand_torso_x_27" type="prescribed displacement" node_set="torso_column_27">
      <dof>x</dof>
      <value lc="1">-31.349913883</value>
    </bc>
    <bc name="expand_torso_y_27" type="prescribed displacement" node_set="torso_column_27">
      <dof>y</dof>
      <value lc="1">51.1584098612</value>
    </bc>
    <bc name="expand_torso_x_28" type="prescribed displacement" node_set="torso_column_28">
      <dof>x</dof>
      <value lc="1">-35.2671151375</value>
    </bc>
    <bc name="expand_torso_y_28" type="prescribed displacement" node_set="torso_column_28">
      <dof>y</dof>
      <value lc="1">48.5410196625</value>
    </bc>
    <bc name="expand_torso_x_29" type="prescribed displacement" node_set="torso_column_29">
      <dof>x</dof>
      <value lc="1">-38.9668828998</value>
    </bc>
    <bc name="expand_torso_y_29" type="prescribed displacement" node_set="torso_column_29">
      <dof>y</dof>
      <value lc="1">45.624357936</value>
    </bc>
    <bc name="expand_torso_x_30" type="prescribed displacement" node_set="torso_column_30">
      <dof>x</dof>
      <value lc="1">-42.4264068712</value>
    </bc>
    <bc name="expand_torso_y_30" type="prescribed displacement" node_set="torso_column_30">
      <dof>y</dof>
      <value lc="1">42.4264068712</value>
    </bc>
    <bc name="expand_torso_x_31" type="prescribed displacement" node_set="torso_column_31">
      <dof>x</dof>
      <value lc="1">-45.624357936</value>
    </bc>
    <bc name="expand_torso_y_31" type="prescribed displacement" node_set="torso_column_31">
      <dof>y</dof>
      <value lc="1">38.9668828998</value>
    </bc>
    <bc name="expand_torso_x_32" type="prescribed displacement" node_set="torso_column_32">
      <dof>x</dof>
      <value lc="1">-48.5410196625</value>
    </bc>
    <bc name="expand_torso_y_32" type="prescribed displacement" node_set="torso_column_32">
      <dof>y</dof>
      <value lc="1">35.2671151375</value>
    </bc>
    <bc name="expand_torso_x_33" type="prescribed displacement" node_set="torso_column_33">
      <dof>x</dof>
      <value lc="1">-51.1584098612</value>
    </bc>
    <bc name="expand_torso_y_33" type="prescribed displacement" node_set="torso_column_33">
      <dof>y</dof>
      <value lc="1">31.349913883</value>
    </bc>
    <bc name="expand_torso_x_34" type="prescribed displacement" node_set="torso_column_34">
      <dof>x</dof>
      <value lc="1">-53.4603914513</value>
    </bc>
    <bc name="expand_torso_y_34" type="prescribed displacement" node_set="torso_column_34">
      <dof>y</dof>
      <value lc="1">27.2394299844</value>
    </bc>
    <bc name="expand_torso_x_35" type="prescribed displacement" node_set="torso_column_35">
      <dof>x</dof>
      <value lc="1">-55.4327719507</value>
    </bc>
    <bc name="expand_torso_y_35" type="prescribed displacement" node_set="torso_column_35">
      <dof>y</dof>
      <value lc="1">22.9610059419</value>
    </bc>
    <bc name="expand_torso_x_36" type="prescribed displacement" node_set="torso_column_36">
      <dof>x</dof>
      <value lc="1">-57.0633909777</value>
    </bc>
    <bc name="expand_torso_y_36" type="prescribed displacement" node_set="torso_column_36">
      <dof>y</dof>
      <value lc="1">18.5410196625</value>
    </bc>
    <bc name="expand_torso_x_37" type="prescribed displacement" node_set="torso_column_37">
      <dof>x</dof>
      <value lc="1">-58.3421952239</value>
    </bc>
    <bc name="expand_torso_y_37" type="prescribed displacement" node_set="torso_column_37">
      <dof>y</dof>
      <value lc="1">14.0067218314</value>
    </bc>
    <bc name="expand_torso_x_38" type="prescribed displacement" node_set="torso_column_38">
      <dof>x</dof>
      <value lc="1">-59.2613004357</value>
    </bc>
    <bc name="expand_torso_y_38" type="prescribed displacement" node_set="torso_column_38">
      <dof>y</dof>
      <value lc="1">9.38606790241</value>
    </bc>
    <bc name="expand_torso_x_39" type="prescribed displacement" node_set="torso_column_39">
      <dof>x</dof>
      <value lc="1">-59.815040024</value>
    </bc>
    <bc name="expand_torso_y_39" type="prescribed displacement" node_set="torso_column_39">
      <dof>y</dof>
      <value lc="1">4.70754574367</value>
    </bc>
    <bc name="expand_torso_x_40" type="prescribed displacement" node_set="torso_column_40">
      <dof>x</dof>
      <value lc="1">-60</value>
    </bc>
    <bc name="expand_torso_y_40" type="prescribed displacement" node_set="torso_column_40">
      <dof>y</dof>
      <value lc="1">7.34788079488e-15</value>
    </bc>
    <bc name="expand_torso_x_41" type="prescribed displacement" node_set="torso_column_41">
      <dof>x</dof>
      <value lc="1">-59.815040024</value>
    </bc>
    <bc name="expand_torso_y_41" type="prescribed displacement" node_set="torso_column_41">
      <dof>y</dof>
      <value lc="1">-4.70754574367</value>
    </bc>
    <bc name="expand_torso_x_42" type="prescribed displacement" node_set="torso_column_42">
      <dof>x</dof>
      <value lc="1">-59.2613004357</value>
    </bc>
    <bc name="expand_torso_y_42" type="prescribed displacement" node_set="torso_column_42">
      <dof>y</dof>
      <value lc="1">-9.38606790241</value>
    </bc>
    <bc name="expand_torso_x_43" type="prescribed displacement" node_set="torso_column_43">
      <dof>x</dof>
      <value lc="1">-58.3421952239</value>
    </bc>
    <bc name="expand_torso_y_43" type="prescribed displacement" node_set="torso_column_43">
      <dof>y</dof>
      <value lc="1">-14.0067218314</value>
    </bc>
    <bc name="expand_torso_x_44" type="prescribed displacement" node_set="torso_column_44">
      <dof>x</dof>
      <value lc="1">-57.0633909777</value>
    </bc>
    <bc name="expand_torso_y_44" type="prescribed displacement" node_set="torso_column_44">
      <dof>y</dof>
      <value lc="1">-18.5410196625</value>
    </bc>
    <bc name="expand_torso_x_45" type="prescribed displacement" node_set="torso_column_45">
      <dof>x</dof>
      <value lc="1">-55.4327719507</value>
    </bc>
    <bc name="expand_torso_y_45" type="prescribed displacement" node_set="torso_column_45">
      <dof>y</dof>
      <value lc="1">-22.9610059419</value>
    </bc>
    <bc name="expand_torso_x_46" type="prescribed displacement" node_set="torso_column_46">
      <dof>x</dof>
      <value lc="1">-53.4603914513</value>
    </bc>
    <bc name="expand_torso_y_46" type="prescribed displacement" node_set="torso_column_46">
      <dof>y</dof>
      <value lc="1">-27.2394299844</value>
    </bc>
    <bc name="expand_torso_x_47" type="prescribed displacement" node_set="torso_column_47">
      <dof>x</dof>
      <value lc="1">-51.1584098612</value>
    </bc>
    <bc name="expand_torso_y_47" type="prescribed displacement" node_set="torso_column_47">
      <dof>y</dof>
      <value lc="1">-31.349913883</value>
    </bc>
    <bc name="expand_torso_x_48" type="prescribed displacement" node_set="torso_column_48">
      <dof>x</dof>
      <value lc="1">-48.5410196625</value>
    </bc>
    <bc name="expand_torso_y_48" type="prescribed displacement" node_set="torso_column_48">
      <dof>y</dof>
      <value lc="1">-35.2671151375</value>
    </bc>
    <bc name="expand_torso_x_49" type="prescribed displacement" node_set="torso_column_49">
      <dof>x</dof>
      <value lc="1">-45.624357936</value>
    </bc>
    <bc name="expand_torso_y_49" type="prescribed displacement" node_set="torso_column_49">
      <dof>y</dof>
      <value lc="1">-38.9668828998</value>
    </bc>
    <bc name="expand_torso_x_50" type="prescribed displacement" node_set="torso_column_50">
      <dof>x</dof>
      <value lc="1">-42.4264068712</value>
    </bc>
    <bc name="expand_torso_y_50" type="prescribed displacement" node_set="torso_column_50">
      <dof>y</dof>
      <value lc="1">-42.4264068712</value>
    </bc>
    <bc name="expand_torso_x_51" type="prescribed displacement" node_set="torso_column_51">
      <dof>x</dof>
      <value lc="1">-38.9668828998</value>
    </bc>
    <bc name="expand_torso_y_51" type="prescribed displacement" node_set="torso_column_51">
      <dof>y</dof>
      <value lc="1">-45.624357936</value>
    </bc>
    <bc name="expand_torso_x_52" type="prescribed displacement" node_set="torso_column_52">
      <dof>x</dof>
      <value lc="1">-35.2671151375</value>
    </bc>
    <bc name="expand_torso_y_52" type="prescribed displacement" node_set="torso_column_52">
      <dof>y</dof>
      <value lc="1">-48.5410196625</value>
    </bc>
    <bc name="expand_torso_x_53" type="prescribed displacement" node_set="torso_column_53">
      <dof>x</dof>
      <value lc="1">-31.349913883</value>
    </bc>
    <bc name="expand_torso_y_53" type="prescribed displacement" node_set="torso_column_53">
      <dof>y</dof>
      <value lc="1">-51.1584098612</value>
    </bc>
    <bc name="expand_torso_x_54" type="prescribed displacement" node_set="torso_column_54">
      <dof>x</dof>
      <value lc="1">-27.2394299844</value>
    </bc>
    <bc name="expand_torso_y_54" type="prescribed displacement" node_set="torso_column_54">
      <dof>y</dof>
      <value lc="1">-53.4603914513</value>
    </bc>
    <bc name="expand_torso_x_55" type="prescribed displacement" node_set="torso_column_55">
      <dof>x</dof>
      <value lc="1">-22.9610059419</value>
    </bc>
    <bc name="expand_torso_y_55" type="prescribed displacement" node_set="torso_column_55">
      <dof>y</dof>
      <value lc="1">-55.4327719507</value>
    </bc>
    <bc name="expand_torso_x_56" type="prescribed displacement" node_set="torso_column_56">
      <dof>x</dof>
      <value lc="1">-18.5410196625</value>
    </bc>
    <bc name="expand_torso_y_56" type="prescribed displacement" node_set="torso_column_56">
      <dof>y</dof>
      <value lc="1">-57.0633909777</value>
    </bc>
    <bc name="expand_torso_x_57" type="prescribed displacement" node_set="torso_column_57">
      <dof>x</dof>
      <value lc="1">-14.0067218314</value>
    </bc>
    <bc name="expand_torso_y_57" type="prescribed displacement" node_set="torso_column_57">
      <dof>y</dof>
      <value lc="1">-58.3421952239</value>
    </bc>
    <bc name="expand_torso_x_58" type="prescribed displacement" node_set="torso_column_58">
      <dof>x</dof>
      <value lc="1">-9.38606790241</value>
    </bc>
    <bc name="expand_torso_y_58" type="prescribed displacement" node_set="torso_column_58">
      <dof>y</dof>
      <value lc="1">-59.2613004357</value>
    </bc>
    <bc name="expand_torso_x_59" type="prescribed displacement" node_set="torso_column_59">
      <dof>x</dof>
      <value lc="1">-4.70754574367</value>
    </bc>
    <bc name="expand_torso_y_59" type="prescribed displacement" node_set="torso_column_59">
      <dof>y</dof>
      <value lc="1">-59.815040024</value>
    </bc>
    <bc name="expand_torso_x_60" type="prescribed displacement" node_set="torso_column_60">
      <dof>x</dof>
      <value lc="1">-1.10218211923e-14</value>
    </bc>
    <bc name="expand_torso_y_60" type="prescribed displacement" node_set="torso_column_60">
      <dof>y</dof>
      <value lc="1">-60</value>
    </bc>
    <bc name="expand_torso_x_61" type="prescribed displacement" node_set="torso_column_61">
      <dof>x</dof>
      <value lc="1">4.70754574367</value>
    </bc>
    <bc name="expand_torso_y_61" type="prescribed displacement" node_set="torso_column_61">
      <dof>y</dof>
      <value lc="1">-59.815040024</value>
    </bc>
    <bc name="expand_torso_x_62" type="prescribed displacement" node_set="torso_column_62">
      <dof>x</dof>
      <value lc="1">9.38606790241</value>
    </bc>
    <bc name="expand_torso_y_62" type="prescribed displacement" node_set="torso_column_62">
      <dof>y</dof>
      <value lc="1">-59.2613004357</value>
    </bc>
    <bc name="expand_torso_x_63" type="prescribed displacement" node_set="torso_column_63">
      <dof>x</dof>
      <value lc="1">14.0067218314</value>
    </bc>
    <bc name="expand_torso_y_63" type="prescribed displacement" node_set="torso_column_63">
      <dof>y</dof>
      <value lc="1">-58.3421952239</value>
    </bc>
    <bc name="expand_torso_x_64" type="prescribed displacement" node_set="torso_column_64">
      <dof>x</dof>
      <value lc="1">18.5410196625</value>
    </bc>
    <bc name="expand_torso_y_64" type="prescribed displacement" node_set="torso_column_64">
      <dof>y</dof>
      <value lc="1">-57.0633909777</value>
    </bc>
    <bc name="expand_torso_x_65" type="prescribed displacement" node_set="torso_column_65">
      <dof>x</dof>
      <value lc="1">22.9610059419</value>
    </bc>
    <bc name="expand_torso_y_65" type="prescribed displacement" node_set="torso_column_65">
      <dof>y</dof>
      <value lc="1">-55.4327719507</value>
    </bc>
    <bc name="expand_torso_x_66" type="prescribed displacement" node_set="torso_column_66">
      <dof>x</dof>
      <value lc="1">27.2394299844</value>
    </bc>
    <bc name="expand_torso_y_66" type="prescribed displacement" node_set="torso_column_66">
      <dof>y</dof>
      <value lc="1">-53.4603914513</value>
    </bc>
    <bc name="expand_torso_x_67" type="prescribed displacement" node_set="torso_column_67">
      <dof>x</dof>
      <value lc="1">31.349913883</value>
    </bc>
    <bc name="expand_torso_y_67" type="prescribed displacement" node_set="torso_column_67">
      <dof>y</dof>
      <value lc="1">-51.1584098612</value>
    </bc>
    <bc name="expand_torso_x_68" type="prescribed displacement" node_set="torso_column_68">
      <dof>x</dof>
      <value lc="1">35.2671151375</value>
    </bc>
    <bc name="expand_torso_y_68" type="prescribed displacement" node_set="torso_column_68">
      <dof>y</dof>
      <value lc="1">-48.5410196625</value>
    </bc>
    <bc name="expand_torso_x_69" type="prescribed displacement" node_set="torso_column_69">
      <dof>x</dof>
      <value lc="1">38.9668828998</value>
    </bc>
    <bc name="expand_torso_y_69" type="prescribed displacement" node_set="torso_column_69">
      <dof>y</dof>
      <value lc="1">-45.624357936</value>
    </bc>
    <bc name="expand_torso_x_70" type="prescribed displacement" node_set="torso_column_70">
      <dof>x</dof>
      <value lc="1">42.4264068712</value>
    </bc>
    <bc name="expand_torso_y_70" type="prescribed displacement" node_set="torso_column_70">
      <dof>y</dof>
      <value lc="1">-42.4264068712</value>
    </bc>
    <bc name="expand_torso_x_71" type="prescribed displacement" node_set="torso_column_71">
      <dof>x</dof>
      <value lc="1">45.624357936</value>
    </bc>
    <bc name="expand_torso_y_71" type="prescribed displacement" node_set="torso_column_71">
      <dof>y</dof>
      <value lc="1">-38.9668828998</value>
    </bc>
    <bc name="expand_torso_x_72" type="prescribed displacement" node_set="torso_column_72">
      <dof>x</dof>
      <value lc="1">48.5410196625</value>
    </bc>
    <bc name="expand_torso_y_72" type="prescribed displacement" node_set="torso_column_72">
      <dof>y</dof>
      <value lc="1">-35.2671151375</value>
    </bc>
    <bc name="expand_torso_x_73" type="prescribed displacement" node_set="torso_column_73">
      <dof>x</dof>
      <value lc="1">51.1584098612</value>
    </bc>
    <bc name="expand_torso_y_73" type="prescribed displacement" node_set="torso_column_73">
      <dof>y</dof>
      <value lc="1">-31.349913883</value>
    </bc>
    <bc name="expand_torso_x_74" type="prescribed displacement" node_set="torso_column_74">
      <dof>x</dof>
      <value lc="1">53.4603914513</value>
    </bc>
    <bc name="expand_torso_y_74" type="prescribed displacement" node_set="torso_column_74">
      <dof>y</dof>
      <value lc="1">-27.2394299844</value>
    </bc>
    <bc name="expand_torso_x_75" type="prescribed displacement" node_set="torso_column_75">
      <dof>x</dof>
      <value lc="1">55.4327719507</value>
    </bc>
    <bc name="expand_torso_y_75" type="prescribed displacement" node_set="torso_column_75">
      <dof>y</dof>
      <value lc="1">-22.9610059419</value>
    </bc>
    <bc name="expand_torso_x_76" type="prescribed displacement" node_set="torso_column_76">
      <dof>x</dof>
      <value lc="1">57.0633909777</value>
    </bc>
    <bc name="expand_torso_y_76" type="prescribed displacement" node_set="torso_column_76">
      <dof>y</dof>
      <value lc="1">-18.5410196625</value>
    </bc>
    <bc name="expand_torso_x_77" type="prescribed displacement" node_set="torso_column_77">
      <dof>x</dof>
      <value lc="1">58.3421952239</value>
    </bc>
    <bc name="expand_torso_y_77" type="prescribed displacement" node_set="torso_column_77">
      <dof>y</dof>
      <value lc="1">-14.0067218314</value>
    </bc>
    <bc name="expand_torso_x_78" type="prescribed displacement" node_set="torso_column_78">
      <dof>x</dof>
      <value lc="1">59.2613004357</value>
    </bc>
    <bc name="expand_torso_y_78" type="prescribed displacement" node_set="torso_column_78">
      <dof>y</dof>
      <value lc="1">-9.38606790241</value>
    </bc>
    <bc name="expand_torso_x_79" type="prescribed displacement" node_set="torso_column_79">
      <dof>x</dof>
      <value lc="1">59.815040024</value>
    </bc>
    <bc name="expand_torso_y_79" type="prescribed displacement" node_set="torso_column_79">
      <dof>y</dof>
      <value lc="1">-4.70754574367</value>
    </bc>
  </Boundary>
  <Contact>
    <contact name="shirt_on_torso" type="sliding-facet-on-facet" surface_pair="shirt_torso_pair">
      <auto_penalty>0</auto_penalty>
      <penalty>0.001</penalty>
      <two_pass>0</two_pass>
      <laugon>0</laugon>
      <search_radius>20.0</search_radius>
      <search_tol>0.1</search_tol>
    </contact>
  </Contact>
  <LoadData>
    <load_controller id="1" type="loadcurve">
      <interpolate>LINEAR</interpolate>
      <points>
        <pt>0,0</pt>
        <pt>1,1</pt>
      </points>
    </load_controller>
  </LoadData>
  <Output>
    <plotfile type="febio" file="results/garment_mesh_fine80_reference.xplt">
      <var type="displacement" />
      <var type="stress" />
      <var type="Lagrange strain" />
      <var type="shell thickness" />
      <var type="contact gap" />
      <var type="contact pressure" />
    </plotfile>
    <logfile file="results/garment_mesh_fine80_reference.log">
      <node_data data="x;y;z" name="shirt_final_coordinates" node_set="shirt_all_nodes" delim="," />
      <face_data data="contact gap;contact pressure" name="shirt_contact_data" surface="shirt_on_torso_primary" delim="," />
    </logfile>
  </Output>
</febio_spec>