<?xml version='1.0' encoding='utf-8'?>
<febio_spec version="4.0">
  <Module type="solid" />
  <Control>
    <analysis>STATIC</analysis>
    <time_steps>30</time_steps>
    <step_size>0.0333333333333</step_size>
    <plot_level>PLOT_MUST_POINTS</plot_level>
    <solver type="solid">
      <max_refs>25</max_refs>
      <diverge_reform>1</diverge_reform>
      <reform_each_time_step>1</reform_each_time_step>
      <dtol>0.001</dtol>
      <etol>0.01</etol>
      <rtol>0</rtol>
    </solver>
    <time_stepper>
      <dtmin>0.0001</dtmin>
      <dtmax>0.05</dtmax>
      <max_retries>12</max_retries>
      <opt_iter>10</opt_iter>
    </time_stepper>
  </Control>
  <Material>
    <material id="1" name="nylon" type="neo-Hookean">
      <E>0.24</E>
      <v>0.35</v>
    </material>
    <material id="2" name="backing_tpu" type="neo-Hookean">
      <E>48.4</E>
      <v>0.45</v>
    </material>
    <material id="3" name="conductive_tpu" type="neo-Hookean">
      <E>45</E>
      <v>0.45</v>
    </material>
  </Material>
  <Mesh>
    <Nodes name="coupon_nodes">
      <node id="1">0,0,0</node>
      <node id="2">10,0,0</node>
      <node id="3">10,5,0</node>
      <node id="4">0,5,0</node>
      <node id="5">0,0,0.8</node>
      <node id="6">10,0,0.8</node>
      <node id="7">10,5,0.8</node>
      <node id="8">0,5,0.8</node>
      <node id="9">20,0,0</node>
      <node id="10">20,5,0</node>
      <node id="11">20,0,0.8</node>
      <node id="12">20,5,0.8</node>
      <node id="13">30,0,0</node>
      <node id="14">30,5,0</node>
      <node id="15">30,0,0.8</node>
      <node id="16">30,5,0.8</node>
      <node id="17">40,0,0</node>
      <node id="18">40,5,0</node>
      <node id="19">40,0,0.8</node>
      <node id="20">40,5,0.8</node>
<!-- ... 385 like lines cut -->
    </Nodes>
    <Elements type="hex8" name="nylon_substrate">
      <elem id="1">1,2,3,4,5,6,7,8</elem>
      <elem id="2">2,9,10,3,6,11,12,7</elem>
      <elem id="3">9,13,14,10,11,15,16,12</elem>
      <elem id="4">13,17,18,14,15,19,20,16</elem>
      <elem id="5">17,21,22,18,19,23,24,20</elem>
      <elem id="6">21,25,26,22,23,27,28,24</elem>
      <elem id="7">25,29,30,26,27,31,32,28</elem>
      <elem id="8">29,33,34,30,31,35,36,32</elem>
      <elem id="9">33,37,38,34,35,39,40,36</elem>
      <elem id="10">37,41,42,38,39,43,44,40</elem>
      <elem id="11">41,45,46,42,43,47,48,44</elem>
      <elem id="12">45,49,50,46,47,51,52,48</elem>
      <elem id="13">4,3,53,54,8,7,55,56</elem>
      <elem id="14">3,10,57,53,7,12,58,55</elem>
      <elem id="15">10,14,59,57,12,16,60,58</elem>
      <elem id="16">14,18,61,59,16,20,62,60</elem>
      <elem id="17">18,22,63,61,20,24,64,62</elem>
      <elem id="18">22,26,65,63,24,28,66,64</elem>
      <elem id="19">26,30,67,65,28,32,68,66</elem>
      <elem id="20">30,34,69,67,32,36,70,68</elem>
<!-- ... 172 like lines cut -->
    </Elements>
    <Elements type="hex8" name="tpu_backing">
      <elem id="193">276,277,290,289,352,353,354,355</elem>
      <elem id="194">277,278,291,290,353,356,357,354</elem>
      <elem id="195">278,279,292,291,356,358,359,357</elem>
      <elem id="196">279,280,293,292,358,360,361,359</elem>
      <elem id="197">280,281,294,293,360,362,363,361</elem>
      <elem id="198">281,282,295,294,362,364,365,363</elem>
      <elem id="199">282,283,296,295,364,366,367,365</elem>
      <elem id="200">283,284,297,296,366,368,369,367</elem>
      <elem id="201">289,290,303,302,355,354,370,371</elem>
      <elem id="202">290,291,304,303,354,357,372,370</elem>
      <elem id="203">291,292,305,304,357,359,373,372</elem>
      <elem id="204">292,293,306,305,359,361,374,373</elem>
      <elem id="205">293,294,307,306,361,363,375,374</elem>
      <elem id="206">294,295,308,307,363,365,376,375</elem>
      <elem id="207">295,296,309,308,365,367,377,376</elem>
      <elem id="208">296,297,310,309,367,369,378,377</elem>
    </Elements>
    <Elements type="hex8" name="conductive_tpu">
      <elem id="209">352,353,354,355,379,380,381,382</elem>
      <elem id="210">353,356,357,354,380,383,384,381</elem>
      <elem id="211">356,358,359,357,383,385,386,384</elem>
      <elem id="212">358,360,361,359,385,387,388,386</elem>
      <elem id="213">360,362,363,361,387,389,390,388</elem>
      <elem id="214">362,364,365,363,389,391,392,390</elem>
      <elem id="215">364,366,367,365,391,393,394,392</elem>
      <elem id="216">366,368,369,367,393,395,396,394</elem>
      <elem id="217">355,354,370,371,382,381,397,398</elem>
      <elem id="218">354,357,372,370,381,384,399,397</elem>
      <elem id="219">357,359,373,372,384,386,400,399</elem>
      <elem id="220">359,361,374,373,386,388,401,400</elem>
      <elem id="221">361,363,375,374,388,390,402,401</elem>
      <elem id="222">363,365,376,375,390,392,403,402</elem>
      <elem id="223">365,367,377,376,392,394,404,403</elem>
      <elem id="224">367,369,378,377,394,396,405,404</elem>
    </Elements>
    <NodeSet name="fixed_end">1,4,5,8,54,56,80,82,106,108,132,134,158,160,184,186,210,212,235,238,262,275,288,301,314,327,340</NodeSet>
    <NodeSet name="loaded_end">49,50,51,52,77,78,103,104,129,130,155,156,181,182,207,208,233,234,259,260,273,286,299,312,325,338,351</NodeSet>
    <NodeSet name="conductive_gauge_nodes">352,353,354,355,356,357,358,359,360,361,362,363,364,365,366,367,368,369,370,371,372,373,374,375,376,377,378,379,380,381,382,383,384,385,386,387,388,389,390,391,392,393,394,395,396,397,398,399,400,401,402,403,404,405</NodeSet>
  </Mesh>
  <MeshDomains>
    <SolidDomain name="nylon_substrate" mat="nylon" />
    <SolidDomain name="tpu_backing" mat="backing_tpu" />
    <SolidDomain name="conductive_tpu" mat="conductive_tpu" />
  </MeshDomains>
  <Boundary>
    <bc name="clamped_left" type="zero displacement" node_set="fixed_end">
      <x_dof>1</x_dof>
      <y_dof>1</y_dof>
      <z_dof>1</z_dof>
    </bc>
    <bc name="thirty_percent_extension" type="prescribed displacement" node_set="loaded_end">
      <dof>x</dof>
      <value lc="1">36</value>
      <relative>0</relative>
    </bc>
  </Boundary>
  <LoadData>
    <load_controller id="1" type="loadcurve">
      <interpolate>LINEAR</interpolate>
      <points>
        <point>0,0</point>
        <point>1,1</point>
      </points>
    </load_controller>
  </LoadData>
  <Output>
    <plotfile type="febio" file="results/geometry_sensor_width_10.xplt">
      <var type="displacement" />
      <var type="Lagrange strain" />
      <var type="stress" />
    </plotfile>
    <logfile file="results/geometry_sensor_width_10.log">
      <node_data data="x;y;z" name="conductive_gauge_coordinates" node_set="conductive_gauge_nodes" delim="," />
    </logfile>
  </Output>
</febio_spec>