<?xml version='1.0' encoding='utf-8'?>
<febio_spec version="4.0">
  <Module type="solid" />
  <Control>
    <analysis>STATIC</analysis>
    <time_steps>30</time_steps>
    <step_size>0.0333333333333</step_size>
    <plot_level>PLOT_MUST_POINTS</plot_level>
    <solver type="solid">
      <max_refs>25</max_refs>
      <diverge_reform>1</diverge_reform>
      <reform_each_time_step>1</reform_each_time_step>
      <dtol>0.001</dtol>
      <etol>0.01</etol>
      <rtol>0</rtol>
    </solver>
    <time_stepper>
      <dtmin>0.0001</dtmin>
      <dtmax>0.05</dtmax>
      <max_retries>12</max_retries>
      <opt_iter>10</opt_iter>
    </time_stepper>
  </Control>
  <Material>
    <material id="1" name="nylon" type="neo-Hookean">
      <E>0.24</E>
      <v>0.35</v>
    </material>
    <material id="2" name="backing_tpu" type="neo-Hookean">
      <E>48.4</E>
      <v>0.45</v>
    </material>
    <material id="3" name="conductive_tpu" type="neo-Hookean">
      <E>45</E>
      <v>0.45</v>
    </material>
  </Material>
  <Mesh>
    <Nodes name="coupon_nodes">
      <node id="1">0,0,0</node>
      <node id="2">10,0,0</node>
      <node id="3">10,4.375,0</node>
      <node id="4">0,4.375,0</node>
      <node id="5">0,0,0.8</node>
      <node id="6">10,0,0.8</node>
      <node id="7">10,4.375,0.8</node>
      <node id="8">0,4.375,0.8</node>
      <node id="9">20,0,0</node>
      <node id="10">20,4.375,0</node>
      <node id="11">20,0,0.8</node>
      <node id="12">20,4.375,0.8</node>
      <node id="13">30,0,0</node>
      <node id="14">30,4.375,0</node>
      <node id="15">30,0,0.8</node>
      <node id="16">30,4.375,0.8</node>
      <node id="17">40,0,0</node>
      <node id="18">40,4.375,0</node>
      <node id="19">40,0,0.8</node>
      <node id="20">40,4.375,0.8</node>
<!-- ... 406 like lines cut -->
    </Nodes>
    <Elements type="hex8" name="nylon_substrate">
      <elem id="1">1,2,3,4,5,6,7,8</elem>
      <elem id="2">2,9,10,3,6,11,12,7</elem>
      <elem id="3">9,13,14,10,11,15,16,12</elem>
      <elem id="4">13,17,18,14,15,19,20,16</elem>
      <elem id="5">17,21,22,18,19,23,24,20</elem>
      <elem id="6">21,25,26,22,23,27,28,24</elem>
      <elem id="7">25,29,30,26,27,31,32,28</elem>
      <elem id="8">29,33,34,30,31,35,36,32</elem>
      <elem id="9">33,37,38,34,35,39,40,36</elem>
      <elem id="10">37,41,42,38,39,43,44,40</elem>
      <elem id="11">41,45,46,42,43,47,48,44</elem>
      <elem id="12">45,49,50,46,47,51,52,48</elem>
      <elem id="13">4,3,53,54,8,7,55,56</elem>
      <elem id="14">3,10,57,53,7,12,58,55</elem>
      <elem id="15">10,14,59,57,12,16,60,58</elem>
      <elem id="16">14,18,61,59,16,20,62,60</elem>
      <elem id="17">18,22,63,61,20,24,64,62</elem>
      <elem id="18">22,26,65,63,24,28,66,64</elem>
      <elem id="19">26,30,67,65,28,32,68,66</elem>
      <elem id="20">30,34,69,67,32,36,70,68</elem>
<!-- ... 196 like lines cut -->
    </Elements>
    <Elements type="hex8" name="tpu_backing">
      <elem id="217">315,316,329,328,391,392,393,394</elem>
      <elem id="218">316,317,330,329,392,395,396,393</elem>
      <elem id="219">317,318,331,330,395,397,398,396</elem>
      <elem id="220">318,319,332,331,397,399,400,398</elem>
      <elem id="221">319,320,333,332,399,401,402,400</elem>
      <elem id="222">320,321,334,333,401,403,404,402</elem>
      <elem id="223">321,322,335,334,403,405,406,404</elem>
      <elem id="224">322,323,336,335,405,407,408,406</elem>
    </Elements>
    <Elements type="hex8" name="conductive_tpu">
      <elem id="225">391,392,393,394,409,410,411,412</elem>
      <elem id="226">392,395,396,393,410,413,414,411</elem>
      <elem id="227">395,397,398,396,413,415,416,414</elem>
      <elem id="228">397,399,400,398,415,417,418,416</elem>
      <elem id="229">399,401,402,400,417,419,420,418</elem>
      <elem id="230">401,403,404,402,419,421,422,420</elem>
      <elem id="231">403,405,406,404,421,423,424,422</elem>
      <elem id="232">405,407,408,406,423,425,426,424</elem>
    </Elements>
    <NodeSet name="fixed_end">1,4,5,8,54,56,80,82,106,108,132,134,158,160,184,186,210,212,236,238,261,264,288,301,314,327,340,353,366,379</NodeSet>
    <NodeSet name="loaded_end">49,50,51,52,77,78,103,104,129,130,155,156,181,182,207,208,233,234,259,260,285,286,299,312,325,338,351,364,377,390</NodeSet>
    <NodeSet name="conductive_gauge_nodes">391,392,393,394,395,396,397,398,399,400,401,402,403,404,405,406,407,408,409,410,411,412,413,414,415,416,417,418,419,420,421,422,423,424,425,426</NodeSet>
  </Mesh>
  <MeshDomains>
    <SolidDomain name="nylon_substrate" mat="nylon" />
    <SolidDomain name="tpu_backing" mat="backing_tpu" />
    <SolidDomain name="conductive_tpu" mat="conductive_tpu" />
  </MeshDomains>
  <Boundary>
    <bc name="clamped_left" type="zero displacement" node_set="fixed_end">
      <x_dof>1</x_dof>
      <y_dof>1</y_dof>
      <z_dof>1</z_dof>
    </bc>
    <bc name="thirty_percent_extension" type="prescribed displacement" node_set="loaded_end">
      <dof>x</dof>
      <value lc="1">36</value>
      <relative>0</relative>
    </bc>
  </Boundary>
  <LoadData>
    <load_controller id="1" type="loadcurve">
      <interpolate>LINEAR</interpolate>
      <points>
        <point>0,0</point>
        <point>1,1</point>
      </points>
    </load_controller>
  </LoadData>
  <Output>
    <plotfile type="febio" file="results/geometry_sensor_width_5.xplt">
      <var type="displacement" />
      <var type="Lagrange strain" />
      <var type="stress" />
    </plotfile>
    <logfile file="results/geometry_sensor_width_5.log">
      <node_data data="x;y;z" name="conductive_gauge_coordinates" node_set="conductive_gauge_nodes" delim="," />
    </logfile>
  </Output>
</febio_spec>