<?xml version='1.0' encoding='utf-8'?>
<febio_spec version="4.0">
  <Module type="solid" />
  <Control>
    <analysis>STATIC</analysis>
    <time_steps>30</time_steps>
    <step_size>0.0333333333333</step_size>
    <plot_level>PLOT_MUST_POINTS</plot_level>
    <solver type="solid">
      <max_refs>25</max_refs>
      <diverge_reform>1</diverge_reform>
      <reform_each_time_step>1</reform_each_time_step>
      <dtol>0.001</dtol>
      <etol>0.01</etol>
      <rtol>0</rtol>
    </solver>
    <time_stepper>
      <dtmin>0.0001</dtmin>
      <dtmax>0.05</dtmax>
      <max_retries>12</max_retries>
      <opt_iter>10</opt_iter>
    </time_stepper>
  </Control>
  <Material>
    <material id="1" name="nylon" type="neo-Hookean">
      <E>0.24</E>
      <v>0.35</v>
    </material>
    <material id="2" name="backing_tpu" type="neo-Hookean">
      <E>48.4</E>
      <v>0.45</v>
    </material>
    <material id="3" name="conductive_tpu" type="neo-Hookean">
      <E>45</E>
      <v>0.45</v>
    </material>
  </Material>
  <Mesh>
    <Nodes name="coupon_nodes">
      <node id="1">0,0,0</node>
      <node id="2">5,0,0</node>
      <node id="3">5,2.5,0</node>
      <node id="4">0,2.5,0</node>
      <node id="5">0,0,0.4</node>
      <node id="6">5,0,0.4</node>
      <node id="7">5,2.5,0.4</node>
      <node id="8">0,2.5,0.4</node>
      <node id="9">10,0,0</node>
      <node id="10">10,2.5,0</node>
      <node id="11">10,0,0.4</node>
      <node id="12">10,2.5,0.4</node>
      <node id="13">15,0,0</node>
      <node id="14">15,2.5,0</node>
      <node id="15">15,0,0.4</node>
      <node id="16">15,2.5,0.4</node>
      <node id="17">20,0,0</node>
      <node id="18">20,2.5,0</node>
      <node id="19">20,0,0.4</node>
      <node id="20">20,2.5,0.4</node>
<!-- ... 2717 like lines cut -->
    </Nodes>
    <Elements type="hex8" name="nylon_substrate">
      <elem id="1">1,2,3,4,5,6,7,8</elem>
      <elem id="2">2,9,10,3,6,11,12,7</elem>
      <elem id="3">9,13,14,10,11,15,16,12</elem>
      <elem id="4">13,17,18,14,15,19,20,16</elem>
      <elem id="5">17,21,22,18,19,23,24,20</elem>
      <elem id="6">21,25,26,22,23,27,28,24</elem>
      <elem id="7">25,29,30,26,27,31,32,28</elem>
      <elem id="8">29,33,34,30,31,35,36,32</elem>
      <elem id="9">33,37,38,34,35,39,40,36</elem>
      <elem id="10">37,41,42,38,39,43,44,40</elem>
      <elem id="11">41,45,46,42,43,47,48,44</elem>
      <elem id="12">45,49,50,46,47,51,52,48</elem>
      <elem id="13">49,53,54,50,51,55,56,52</elem>
      <elem id="14">53,57,58,54,55,59,60,56</elem>
      <elem id="15">57,61,62,58,59,63,64,60</elem>
      <elem id="16">61,65,66,62,63,67,68,64</elem>
      <elem id="17">65,69,70,66,67,71,72,68</elem>
      <elem id="18">69,73,74,70,71,75,76,72</elem>
      <elem id="19">73,77,78,74,75,79,80,76</elem>
      <elem id="20">77,81,82,78,79,83,84,80</elem>
<!-- ... 1516 like lines cut -->
    </Elements>
    <Elements type="hex8" name="tpu_backing">
      <elem id="1537">1805,1806,1831,1830,2126,2127,2128,2129</elem>
      <elem id="1538">1806,1807,1832,1831,2127,2130,2131,2128</elem>
      <elem id="1539">1807,1808,1833,1832,2130,2132,2133,2131</elem>
      <elem id="1540">1808,1809,1834,1833,2132,2134,2135,2133</elem>
      <elem id="1541">1809,1810,1835,1834,2134,2136,2137,2135</elem>
      <elem id="1542">1810,1811,1836,1835,2136,2138,2139,2137</elem>
      <elem id="1543">1811,1812,1837,1836,2138,2140,2141,2139</elem>
      <elem id="1544">1812,1813,1838,1837,2140,2142,2143,2141</elem>
      <elem id="1545">1813,1814,1839,1838,2142,2144,2145,2143</elem>
      <elem id="1546">1814,1815,1840,1839,2144,2146,2147,2145</elem>
      <elem id="1547">1815,1816,1841,1840,2146,2148,2149,2147</elem>
      <elem id="1548">1816,1817,1842,1841,2148,2150,2151,2149</elem>
      <elem id="1549">1817,1818,1843,1842,2150,2152,2153,2151</elem>
      <elem id="1550">1818,1819,1844,1843,2152,2154,2155,2153</elem>
      <elem id="1551">1819,1820,1845,1844,2154,2156,2157,2155</elem>
      <elem id="1552">1820,1821,1846,1845,2156,2158,2159,2157</elem>
      <elem id="1553">1830,1831,1856,1855,2129,2128,2160,2161</elem>
      <elem id="1554">1831,1832,1857,1856,2128,2131,2162,2160</elem>
      <elem id="1555">1832,1833,1858,1857,2131,2133,2163,2162</elem>
      <elem id="1556">1833,1834,1859,1858,2133,2135,2164,2163</elem>
<!-- ... 236 like lines cut -->
    </Elements>
    <Elements type="hex8" name="conductive_tpu">
      <elem id="1793">2279,2280,2281,2282,2432,2433,2434,2435</elem>
      <elem id="1794">2280,2283,2284,2281,2433,2436,2437,2434</elem>
      <elem id="1795">2283,2285,2286,2284,2436,2438,2439,2437</elem>
      <elem id="1796">2285,2287,2288,2286,2438,2440,2441,2439</elem>
      <elem id="1797">2287,2289,2290,2288,2440,2442,2443,2441</elem>
      <elem id="1798">2289,2291,2292,2290,2442,2444,2445,2443</elem>
      <elem id="1799">2291,2293,2294,2292,2444,2446,2447,2445</elem>
      <elem id="1800">2293,2295,2296,2294,2446,2448,2449,2447</elem>
      <elem id="1801">2295,2297,2298,2296,2448,2450,2451,2449</elem>
      <elem id="1802">2297,2299,2300,2298,2450,2452,2453,2451</elem>
      <elem id="1803">2299,2301,2302,2300,2452,2454,2455,2453</elem>
      <elem id="1804">2301,2303,2304,2302,2454,2456,2457,2455</elem>
      <elem id="1805">2303,2305,2306,2304,2456,2458,2459,2457</elem>
      <elem id="1806">2305,2307,2308,2306,2458,2460,2461,2459</elem>
      <elem id="1807">2307,2309,2310,2308,2460,2462,2463,2461</elem>
      <elem id="1808">2309,2311,2312,2310,2462,2464,2465,2463</elem>
      <elem id="1809">2282,2281,2313,2314,2435,2434,2466,2467</elem>
      <elem id="1810">2281,2284,2315,2313,2434,2437,2468,2466</elem>
      <elem id="1811">2284,2286,2316,2315,2437,2439,2469,2468</elem>
      <elem id="1812">2286,2288,2317,2316,2439,2441,2470,2469</elem>
<!-- ... 236 like lines cut -->
    </Elements>
    <NodeSet name="fixed_end">1,4,5,8,102,104,152,154,202,204,252,254,302,304,352,354,402,404,452,454,502,504,552,554,602,604,652,654,702,704,752,754,802,804,851,854,902,927,952,977,1002,1027,1052,1077,1102,1127,1152,1177,1202,1227,1252,1276,1279,1327,1352,1377,1402,1427,1452,1477,1502,1527,1552,1577,1602,1627,1652,1677,1701,1704,1752,1777,1802,1827,1852,1877,1902,1927,1952,1977,2002,2027,2052,207
    <NodeSet name="loaded_end">97,98,99,100,149,150,199,200,249,250,299,300,349,350,399,400,449,450,499,500,549,550,599,600,649,650,699,700,749,750,799,800,849,850,899,900,925,950,975,1000,1025,1050,1075,1100,1125,1150,1175,1200,1225,1250,1275,1324,1325,1350,1375,1400,1425,1450,1475,1500,1525,1550,1575,1600,1625,1650,1675,1700,1749,1750,1775,1800,1825,1850,1875,1900,1925,1950,1975,2000,2025,2050,2
    <NodeSet name="conductive_gauge_nodes">2279,2280,2281,2282,2283,2284,2285,2286,2287,2288,2289,2290,2291,2292,2293,2294,2295,2296,2297,2298,2299,2300,2301,2302,2303,2304,2305,2306,2307,2308,2309,2310,2311,2312,2313,2314,2315,2316,2317,2318,2319,2320,2321,2322,2323,2324,2325,2326,2327,2328,2329,2330,2331,2332,2333,2334,2335,2336,2337,2338,2339,2340,2341,2342,2343,2344,2345,2346,2347,2348,2349,23
  </Mesh>
  <MeshDomains>
    <SolidDomain name="nylon_substrate" mat="nylon" />
    <SolidDomain name="tpu_backing" mat="backing_tpu" />
    <SolidDomain name="conductive_tpu" mat="conductive_tpu" />
  </MeshDomains>
  <Boundary>
    <bc name="clamped_left" type="zero displacement" node_set="fixed_end">
      <x_dof>1</x_dof>
      <y_dof>1</y_dof>
      <z_dof>1</z_dof>
    </bc>
    <bc name="thirty_percent_extension" type="prescribed displacement" node_set="loaded_end">
      <dof>x</dof>
      <value lc="1">36</value>
      <relative>0</relative>
    </bc>
  </Boundary>
  <LoadData>
    <load_controller id="1" type="loadcurve">
      <interpolate>LINEAR</interpolate>
      <points>
        <point>0,0</point>
        <point>1,1</point>
      </points>
    </load_controller>
  </LoadData>
  <Output>
    <plotfile type="febio" file="results/geometry_verify_width_20_medium.xplt">
      <var type="displacement" />
      <var type="Lagrange strain" />
      <var type="stress" />
    </plotfile>
    <logfile file="results/geometry_verify_width_20_medium.log">
      <node_data data="x;y;z" name="conductive_gauge_coordinates" node_set="conductive_gauge_nodes" delim="," />
    </logfile>
  </Output>
</febio_spec>