<?xml version='1.0' encoding='utf-8'?>
<febio_spec version="4.0">
  <Module type="solid" />
  <Control>
    <analysis>STATIC</analysis>
    <time_steps>30</time_steps>
    <step_size>0.0333333333333</step_size>
    <plot_level>PLOT_MUST_POINTS</plot_level>
    <solver type="solid">
      <max_refs>25</max_refs>
      <diverge_reform>1</diverge_reform>
      <reform_each_time_step>1</reform_each_time_step>
      <dtol>0.001</dtol>
      <etol>0.01</etol>
      <rtol>0</rtol>
    </solver>
    <time_stepper>
      <dtmin>0.0001</dtmin>
      <dtmax>0.05</dtmax>
      <max_retries>12</max_retries>
      <opt_iter>10</opt_iter>
    </time_stepper>
  </Control>
  <Material>
    <material id="1" name="nylon" type="neo-Hookean">
      <E>0.24</E>
      <v>0.35</v>
    </material>
    <material id="2" name="backing_tpu" type="neo-Hookean">
      <E>48.4</E>
      <v>0.45</v>
    </material>
    <material id="3" name="conductive_tpu" type="neo-Hookean">
      <E>45</E>
      <v>0.45</v>
    </material>
    <material id="4" name="compliant_interface" type="neo-Hookean">
      <E>0.1</E>
      <v>0.3</v>
    </material>
  </Material>
  <Mesh>
    <Nodes name="coupon_nodes">
      <node id="1">0,0,0</node>
      <node id="2">10,0,0</node>
      <node id="3">10,4.1666667,0</node>
      <node id="4">0,4.1666667,0</node>
      <node id="5">0,0,0.8</node>
      <node id="6">10,0,0.8</node>
      <node id="7">10,4.1666667,0.8</node>
      <node id="8">0,4.1666667,0.8</node>
      <node id="9">20,0,0</node>
      <node id="10">20,4.1666667,0</node>
      <node id="11">20,0,0.8</node>
      <node id="12">20,4.1666667,0.8</node>
      <node id="13">25,0,0</node>
      <node id="14">25,4.1666667,0</node>
      <node id="15">25,0,0.8</node>
      <node id="16">25,4.1666667,0.8</node>
      <node id="17">35,0,0</node>
      <node id="18">35,4.1666667,0</node>
      <node id="19">35,0,0.8</node>
      <node id="20">35,4.1666667,0.8</node>
<!-- ... 520 like lines cut -->
    </Nodes>
    <Elements type="hex8" name="nylon_substrate">
      <elem id="1">1,2,3,4,5,6,7,8</elem>
      <elem id="2">2,9,10,3,6,11,12,7</elem>
      <elem id="3">9,13,14,10,11,15,16,12</elem>
      <elem id="4">13,17,18,14,15,19,20,16</elem>
      <elem id="5">17,21,22,18,19,23,24,20</elem>
      <elem id="6">21,25,26,22,23,27,28,24</elem>
      <elem id="7">25,29,30,26,27,31,32,28</elem>
      <elem id="8">29,33,34,30,31,35,36,32</elem>
      <elem id="9">33,37,38,34,35,39,40,36</elem>
      <elem id="10">37,41,42,38,39,43,44,40</elem>
      <elem id="11">41,45,46,42,43,47,48,44</elem>
      <elem id="12">45,49,50,46,47,51,52,48</elem>
      <elem id="13">49,53,54,50,51,55,56,52</elem>
      <elem id="14">4,3,57,58,8,7,59,60</elem>
      <elem id="15">3,10,61,57,7,12,62,59</elem>
      <elem id="16">10,14,63,61,12,16,64,62</elem>
      <elem id="17">14,18,65,63,16,20,66,64</elem>
      <elem id="18">18,22,67,65,20,24,68,66</elem>
      <elem id="19">22,26,69,67,24,28,70,68</elem>
      <elem id="20">26,30,71,69,28,32,72,70</elem>
<!-- ... 214 like lines cut -->
    </Elements>
    <Elements type="hex8" name="interface_layer">
      <elem id="235">325,326,340,339,421,422,423,424</elem>
      <elem id="236">326,327,341,340,422,425,426,423</elem>
      <elem id="237">327,328,342,341,425,427,428,426</elem>
      <elem id="238">328,329,343,342,427,429,430,428</elem>
      <elem id="239">329,330,344,343,429,431,432,430</elem>
      <elem id="240">330,331,345,344,431,433,434,432</elem>
      <elem id="241">331,332,346,345,433,435,436,434</elem>
      <elem id="242">332,333,347,346,435,437,438,436</elem>
      <elem id="243">333,334,348,347,437,439,440,438</elem>
      <elem id="244">339,340,354,353,424,423,441,442</elem>
      <elem id="245">340,341,355,354,423,426,443,441</elem>
      <elem id="246">341,342,356,355,426,428,444,443</elem>
      <elem id="247">342,343,357,356,428,430,445,444</elem>
      <elem id="248">343,344,358,357,430,432,446,445</elem>
      <elem id="249">344,345,359,358,432,434,447,446</elem>
      <elem id="250">345,346,360,359,434,436,448,447</elem>
      <elem id="251">346,347,361,360,436,438,449,448</elem>
      <elem id="252">347,348,362,361,438,440,450,449</elem>
      <elem id="253">353,354,368,367,442,441,451,452</elem>
      <elem id="254">354,355,369,368,441,443,453,451</elem>
<!-- ... 7 like lines cut -->
    </Elements>
    <Elements type="hex8" name="tpu_backing">
      <elem id="262">421,422,423,424,461,462,463,464</elem>
      <elem id="263">422,425,426,423,462,465,466,463</elem>
      <elem id="264">425,427,428,426,465,467,468,466</elem>
      <elem id="265">427,429,430,428,467,469,470,468</elem>
      <elem id="266">429,431,432,430,469,471,472,470</elem>
      <elem id="267">431,433,434,432,471,473,474,472</elem>
      <elem id="268">433,435,436,434,473,475,476,474</elem>
      <elem id="269">435,437,438,436,475,477,478,476</elem>
      <elem id="270">437,439,440,438,477,479,480,478</elem>
      <elem id="271">424,423,441,442,464,463,481,482</elem>
      <elem id="272">423,426,443,441,463,466,483,481</elem>
      <elem id="273">426,428,444,443,466,468,484,483</elem>
      <elem id="274">428,430,445,444,468,470,485,484</elem>
      <elem id="275">430,432,446,445,470,472,486,485</elem>
      <elem id="276">432,434,447,446,472,474,487,486</elem>
      <elem id="277">434,436,448,447,474,476,488,487</elem>
      <elem id="278">436,438,449,448,476,478,489,488</elem>
      <elem id="279">438,440,450,449,478,480,490,489</elem>
      <elem id="280">442,441,451,452,482,481,491,492</elem>
      <elem id="281">441,443,453,451,481,483,493,491</elem>
<!-- ... 7 like lines cut -->
    </Elements>
    <Elements type="hex8" name="conductive_tpu">
      <elem id="289">461,462,463,464,501,502,503,504</elem>
      <elem id="290">462,465,466,463,502,505,506,503</elem>
      <elem id="291">465,467,468,466,505,507,508,506</elem>
      <elem id="292">467,469,470,468,507,509,510,508</elem>
      <elem id="293">469,471,472,470,509,511,512,510</elem>
      <elem id="294">471,473,474,472,511,513,514,512</elem>
      <elem id="295">473,475,476,474,513,515,516,514</elem>
      <elem id="296">475,477,478,476,515,517,518,516</elem>
      <elem id="297">477,479,480,478,517,519,520,518</elem>
      <elem id="298">464,463,481,482,504,503,521,522</elem>
      <elem id="299">463,466,483,481,503,506,523,521</elem>
      <elem id="300">466,468,484,483,506,508,524,523</elem>
      <elem id="301">468,470,485,484,508,510,525,524</elem>
      <elem id="302">470,472,486,485,510,512,526,525</elem>
      <elem id="303">472,474,487,486,512,514,527,526</elem>
      <elem id="304">474,476,488,487,514,516,528,527</elem>
      <elem id="305">476,478,489,488,516,518,529,528</elem>
      <elem id="306">478,480,490,489,518,520,530,529</elem>
      <elem id="307">482,481,491,492,522,521,531,532</elem>
      <elem id="308">481,483,493,491,521,523,533,531</elem>
<!-- ... 7 like lines cut -->
    </Elements>
    <NodeSet name="conductive_gauge_nodes">461,462,463,464,465,466,467,468,469,470,471,472,473,474,475,476,477,478,479,480,481,482,483,484,485,486,487,488,489,490,491,492,493,494,495,496,497,498,499,500,501,502,503,504,505,506,507,508,509,510,511,512,513,514,515,516,517,518,519,520,521,522,523,524,525,526,527,528,529,530,531,532,533,534,535,536,537,538,539,540</NodeSet>
    <NodeSet name="fixed_end">1,4,5,8,58,60,86,88,114,116,142,144,170,172,198,200,226,228,254,256,281,284,310,324,338,352,366,380,394,408</NodeSet>
    <NodeSet name="loaded_end">53,54,55,56,83,84,111,112,139,140,167,168,195,196,223,224,251,252,279,280,307,308,322,336,350,364,378,392,406,420</NodeSet>
  </Mesh>
  <MeshDomains>
    <SolidDomain name="nylon_substrate" mat="nylon" />
    <SolidDomain name="interface_layer" mat="compliant_interface" />
    <SolidDomain name="tpu_backing" mat="backing_tpu" />
    <SolidDomain name="conductive_tpu" mat="conductive_tpu" />
  </MeshDomains>
  <Boundary>
    <bc name="clamped_left" type="zero displacement" node_set="fixed_end">
      <x_dof>1</x_dof>
      <y_dof>1</y_dof>
      <z_dof>1</z_dof>
    </bc>
    <bc name="thirty_percent_extension" type="prescribed displacement" node_set="loaded_end">
      <dof>x</dof>
      <value lc="1">36</value>
      <relative>0</relative>
    </bc>
  </Boundary>
  <LoadData>
    <load_controller id="1" type="loadcurve">
      <interpolate>LINEAR</interpolate>
      <points>
        <point>0,0</point>
        <point>1,1</point>
      </points>
    </load_controller>
  </LoadData>
  <Output>
    <plotfile type="febio" file="results/interface_smoke.xplt">
      <var type="displacement" />
      <var type="Lagrange strain" />
      <var type="stress" />
    </plotfile>
    <logfile file="results/interface_smoke.log">
      <node_data data="x;y;z" name="conductive_gauge_coordinates" node_set="conductive_gauge_nodes" delim="," />
    </logfile>
  </Output>
</febio_spec>