<?xml version='1.0' encoding='utf-8'?>
<febio_spec version="4.0">
  <Module type="solid" />
  <Control>
    <analysis>STATIC</analysis>
    <time_steps>30</time_steps>
    <step_size>0.0333333333333</step_size>
    <plot_level>PLOT_MUST_POINTS</plot_level>
    <solver type="solid">
      <max_refs>25</max_refs>
      <diverge_reform>1</diverge_reform>
      <reform_each_time_step>1</reform_each_time_step>
      <dtol>0.001</dtol>
      <etol>0.01</etol>
      <rtol>0</rtol>
    </solver>
    <time_stepper>
      <dtmin>0.0001</dtmin>
      <dtmax>0.05</dtmax>
      <max_retries>12</max_retries>
      <opt_iter>10</opt_iter>
    </time_stepper>
  </Control>
  <Material>
    <material id="1" name="nylon" type="neo-Hookean">
      <E>0.24</E>
      <v>0.35</v>
    </material>
    <material id="2" name="backing_tpu" type="neo-Hookean">
      <E>48.4</E>
      <v>0.45</v>
    </material>
    <material id="3" name="conductive_tpu" type="neo-Hookean">
      <E>45</E>
      <v>0.45</v>
    </material>
  </Material>
  <Mesh>
    <Nodes name="coupon_nodes">
      <node id="1">0,0,0</node>
      <node id="2">2.5,0,0</node>
      <node id="3">2.5,1.25,0</node>
      <node id="4">0,1.25,0</node>
      <node id="5">0,0,0.2</node>
      <node id="6">2.5,0,0.2</node>
      <node id="7">2.5,1.25,0.2</node>
      <node id="8">0,1.25,0.2</node>
      <node id="9">5,0,0</node>
      <node id="10">5,1.25,0</node>
      <node id="11">5,0,0.2</node>
      <node id="12">5,1.25,0.2</node>
      <node id="13">7.5,0,0</node>
      <node id="14">7.5,1.25,0</node>
      <node id="15">7.5,0,0.2</node>
      <node id="16">7.5,1.25,0.2</node>
      <node id="17">10,0,0</node>
      <node id="18">10,1.25,0</node>
      <node id="19">10,0,0.2</node>
      <node id="20">10,1.25,0.2</node>
<!-- ... 46429 like lines cut -->
    </Nodes>
    <Elements type="hex8" name="nylon_substrate">
      <elem id="1">1,2,3,4,5,6,7,8</elem>
      <elem id="2">2,9,10,3,6,11,12,7</elem>
      <elem id="3">9,13,14,10,11,15,16,12</elem>
      <elem id="4">13,17,18,14,15,19,20,16</elem>
      <elem id="5">17,21,22,18,19,23,24,20</elem>
      <elem id="6">21,25,26,22,23,27,28,24</elem>
      <elem id="7">25,29,30,26,27,31,32,28</elem>
      <elem id="8">29,33,34,30,31,35,36,32</elem>
      <elem id="9">33,37,38,34,35,39,40,36</elem>
      <elem id="10">37,41,42,38,39,43,44,40</elem>
      <elem id="11">41,45,46,42,43,47,48,44</elem>
      <elem id="12">45,49,50,46,47,51,52,48</elem>
      <elem id="13">49,53,54,50,51,55,56,52</elem>
      <elem id="14">53,57,58,54,55,59,60,56</elem>
      <elem id="15">57,61,62,58,59,63,64,60</elem>
      <elem id="16">61,65,66,62,63,67,68,64</elem>
      <elem id="17">65,69,70,66,67,71,72,68</elem>
      <elem id="18">69,73,74,70,71,75,76,72</elem>
      <elem id="19">73,77,78,74,75,79,80,76</elem>
      <elem id="20">77,81,82,78,79,83,84,80</elem>
<!-- ... 32236 like lines cut -->
    </Elements>
    <Elements type="hex8" name="tpu_backing">
      <elem id="32257">34471,34472,34545,34544,37450,37451,37452,37453</elem>
      <elem id="32258">34472,34473,34546,34545,37451,37454,37455,37452</elem>
      <elem id="32259">34473,34474,34547,34546,37454,37456,37457,37455</elem>
      <elem id="32260">34474,34475,34548,34547,37456,37458,37459,37457</elem>
      <elem id="32261">34475,34476,34549,34548,37458,37460,37461,37459</elem>
      <elem id="32262">34476,34477,34550,34549,37460,37462,37463,37461</elem>
      <elem id="32263">34477,34478,34551,34550,37462,37464,37465,37463</elem>
      <elem id="32264">34478,34479,34552,34551,37464,37466,37467,37465</elem>
      <elem id="32265">34479,34480,34553,34552,37466,37468,37469,37467</elem>
      <elem id="32266">34480,34481,34554,34553,37468,37470,37471,37469</elem>
      <elem id="32267">34481,34482,34555,34554,37470,37472,37473,37471</elem>
      <elem id="32268">34482,34483,34556,34555,37472,37474,37475,37473</elem>
      <elem id="32269">34483,34484,34557,34556,37474,37476,37477,37475</elem>
      <elem id="32270">34484,34485,34558,34557,37476,37478,37479,37477</elem>
      <elem id="32271">34485,34486,34559,34558,37478,37480,37481,37479</elem>
      <elem id="32272">34486,34487,34560,34559,37480,37482,37483,37481</elem>
      <elem id="32273">34487,34488,34561,34560,37482,37484,37485,37483</elem>
      <elem id="32274">34488,34489,34562,34561,37484,37486,37487,37485</elem>
      <elem id="32275">34489,34490,34563,34562,37486,37488,37489,37487</elem>
      <elem id="32276">34490,34491,34564,34563,37488,37490,37491,37489</elem>
<!-- ... 4204 like lines cut -->
    </Elements>
    <Elements type="hex8" name="conductive_tpu">
      <elem id="36481">40825,40826,40827,40828,41950,41951,41952,41953</elem>
      <elem id="36482">40826,40829,40830,40827,41951,41954,41955,41952</elem>
      <elem id="36483">40829,40831,40832,40830,41954,41956,41957,41955</elem>
      <elem id="36484">40831,40833,40834,40832,41956,41958,41959,41957</elem>
      <elem id="36485">40833,40835,40836,40834,41958,41960,41961,41959</elem>
      <elem id="36486">40835,40837,40838,40836,41960,41962,41963,41961</elem>
      <elem id="36487">40837,40839,40840,40838,41962,41964,41965,41963</elem>
      <elem id="36488">40839,40841,40842,40840,41964,41966,41967,41965</elem>
      <elem id="36489">40841,40843,40844,40842,41966,41968,41969,41967</elem>
      <elem id="36490">40843,40845,40846,40844,41968,41970,41971,41969</elem>
      <elem id="36491">40845,40847,40848,40846,41970,41972,41973,41971</elem>
      <elem id="36492">40847,40849,40850,40848,41972,41974,41975,41973</elem>
      <elem id="36493">40849,40851,40852,40850,41974,41976,41977,41975</elem>
      <elem id="36494">40851,40853,40854,40852,41976,41978,41979,41977</elem>
      <elem id="36495">40853,40855,40856,40854,41978,41980,41981,41979</elem>
      <elem id="36496">40855,40857,40858,40856,41980,41982,41983,41981</elem>
      <elem id="36497">40857,40859,40860,40858,41982,41984,41985,41983</elem>
      <elem id="36498">40859,40861,40862,40860,41984,41986,41987,41985</elem>
      <elem id="36499">40861,40863,40864,40862,41986,41988,41989,41987</elem>
      <elem id="36500">40863,40865,40866,40864,41988,41990,41991,41989</elem>
<!-- ... 4204 like lines cut -->
    </Elements>
    <NodeSet name="fixed_end">1,4,5,8,294,296,440,442,586,588,732,734,878,880,1024,1026,1170,1172,1316,1318,1462,1464,1608,1610,1754,1756,1900,1902,2046,2048,2192,2194,2338,2340,2484,2486,2630,2632,2776,2778,2922,2924,3068,3070,3214,3216,3360,3362,3506,3508,3652,3654,3798,3800,3944,3946,4090,4092,4236,4238,4382,4384,4528,4530,4674,4676,4820,4822,4966,4968,5112,5114,5258,5260,5404,5406,5550,5552,56
    <NodeSet name="loaded_end">289,290,291,292,437,438,583,584,729,730,875,876,1021,1022,1167,1168,1313,1314,1459,1460,1605,1606,1751,1752,1897,1898,2043,2044,2189,2190,2335,2336,2481,2482,2627,2628,2773,2774,2919,2920,3065,3066,3211,3212,3357,3358,3503,3504,3649,3650,3795,3796,3941,3942,4087,4088,4233,4234,4379,4380,4525,4526,4671,4672,4817,4818,4963,4964,5109,5110,5255,5256,5401,5402,5547,5548,5
    <NodeSet name="conductive_gauge_nodes">40825,40826,40827,40828,40829,40830,40831,40832,40833,40834,40835,40836,40837,40838,40839,40840,40841,40842,40843,40844,40845,40846,40847,40848,40849,40850,40851,40852,40853,40854,40855,40856,40857,40858,40859,40860,40861,40862,40863,40864,40865,40866,40867,40868,40869,40870,40871,40872,40873,40874,40875,40876,40877,40878,40879,40880,40881,40882,40883,408
  </Mesh>
  <MeshDomains>
    <SolidDomain name="nylon_substrate" mat="nylon" />
    <SolidDomain name="tpu_backing" mat="backing_tpu" />
    <SolidDomain name="conductive_tpu" mat="conductive_tpu" />
  </MeshDomains>
  <Boundary>
    <bc name="clamped_left" type="zero displacement" node_set="fixed_end">
      <x_dof>1</x_dof>
      <y_dof>1</y_dof>
      <z_dof>1</z_dof>
    </bc>
    <bc name="thirty_percent_extension" type="prescribed displacement" node_set="loaded_end">
      <dof>x</dof>
      <value lc="1">36</value>
      <relative>0</relative>
    </bc>
  </Boundary>
  <LoadData>
    <load_controller id="1" type="loadcurve">
      <interpolate>LINEAR</interpolate>
      <points>
        <point>0,0</point>
        <point>1,1</point>
      </points>
    </load_controller>
  </LoadData>
  <Output>
    <plotfile type="febio" file="results/local_mesh_fine.xplt">
      <var type="displacement" />
      <var type="Lagrange strain" />
      <var type="stress" />
    </plotfile>
    <logfile file="results/local_mesh_fine.log">
      <node_data data="x;y;z" name="conductive_gauge_coordinates" node_set="conductive_gauge_nodes" delim="," />
    </logfile>
  </Output>
</febio_spec>