<?xml version='1.0' encoding='utf-8'?>
<febio_spec version="4.0">
  <Module type="solid" />
  <Control>
    <analysis>STATIC</analysis>
    <time_steps>40</time_steps>
    <step_size>0.025</step_size>
    <plot_level>PLOT_MUST_POINTS</plot_level>
    <solver type="solid">
      <max_refs>35</max_refs>
      <diverge_reform>1</diverge_reform>
      <reform_each_time_step>1</reform_each_time_step>
      <symmetric_stiffness>0</symmetric_stiffness>
      <dtol>0.02</dtol>
      <etol>0.0001</etol>
      <rtol>0.001</rtol>
    </solver>
    <time_stepper>
      <dtmin>1e-05</dtmin>
      <dtmax>0.025</dtmax>
      <max_retries>15</max_retries>
      <opt_iter>10</opt_iter>
    </time_stepper>
  </Control>
  <Material>
    <material id="1" name="textile_provisional" type="neo-Hookean">
      <E>0.8</E>
      <v>0.3</v>
    </material>
    <material id="2" name="torso_fixed" type="neo-Hookean">
      <E>0.8</E>
      <v>0.3</v>
    </material>
  </Material>
  <Mesh>
    <Nodes name="shirt_nodes">
      <node id="1">187.9,0,0</node>
      <node id="2">187.184984,14.371982,0</node>
      <node id="3">185.045377,28.6345845,0</node>
      <node id="4">181.497463,42.6792605,0</node>
      <node id="5">176.568243,56.3991216,0</node>
      <node id="6">170.295233,69.6897514,0</node>
      <node id="7">162.726173,82.45,0</node>
      <node id="8">153.918669,94.5827544,0</node>
      <node id="9">143.939751,105.995677,0</node>
      <node id="10">132.865364,116.601908,0</node>
      <node id="11">120.779792,126.320729,0</node>
      <node id="12">107.775012,135.078172,0</node>
      <node id="13">93.95,142.807589,0</node>
      <node id="14">79.4099714,149.450154,0</node>
      <node id="15">64.2655849,154.955313,0</node>
      <node id="16">48.6320986,159.281169,0</node>
      <node id="17">32.6284926,162.394798,0</node>
      <node id="18">16.3765641,164.272506,0</node>
      <node id="19">1.15055567e-14,164.9,0</node>
      <node id="20">-16.3765641,164.272506,0</node>
<!-- ... 2212 like lines cut -->
    </Nodes>
    <Nodes name="torso_nodes">
      <node id="2233">187.4,0,-50</node>
      <node id="2234">186.686886,14.3284041,-50</node>
      <node id="2235">184.552973,28.5477604,-50</node>
      <node id="2236">181.0145,42.549851,-50</node>
      <node id="2237">176.098397,56.2281116,-50</node>
      <node id="2238">169.842079,69.4784422,-50</node>
      <node id="2239">162.293161,82.2,-50</node>
      <node id="2240">153.509093,94.2959661,-50</node>
      <node id="2241">143.556729,105.674283,-50</node>
      <node id="2242">132.511811,116.248355,-50</node>
      <node id="2243">120.458398,125.937706,-50</node>
      <node id="2244">107.488224,134.668596,-50</node>
      <node id="2245">93.7,142.374576,-50</node>
      <node id="2246">79.1986623,148.997,-50</node>
      <node id="2247">64.0945749,154.485467,-50</node>
      <node id="2248">48.5026891,158.798206,-50</node>
      <node id="2249">32.5416685,161.902395,-50</node>
      <node id="2250">16.3329862,163.774408,-50</node>
      <node id="2251">1.14749405e-14,164.4,-50</node>
      <node id="2252">-16.3329862,163.774408,-50</node>
<!-- ... 2212 like lines cut -->
    </Nodes>
    <Elements type="quad4" name="shirt_back">
      <elem id="1">1,2,74,73</elem>
      <elem id="2">2,3,75,74</elem>
      <elem id="3">3,4,76,75</elem>
      <elem id="4">4,5,77,76</elem>
      <elem id="5">5,6,78,77</elem>
      <elem id="6">6,7,79,78</elem>
      <elem id="7">7,8,80,79</elem>
      <elem id="8">8,9,81,80</elem>
      <elem id="9">9,10,82,81</elem>
      <elem id="10">10,11,83,82</elem>
      <elem id="11">11,12,84,83</elem>
      <elem id="12">12,13,85,84</elem>
      <elem id="13">13,14,86,85</elem>
      <elem id="14">14,15,87,86</elem>
      <elem id="15">15,16,88,87</elem>
      <elem id="16">16,17,89,88</elem>
      <elem id="17">17,18,90,89</elem>
      <elem id="18">18,19,91,90</elem>
      <elem id="19">19,20,92,91</elem>
      <elem id="20">20,21,93,92</elem>
<!-- ... 1060 like lines cut -->
    </Elements>
    <Elements type="quad4" name="shirt_front">
      <elem id="1081">37,38,110,109</elem>
      <elem id="1082">38,39,111,110</elem>
      <elem id="1083">39,40,112,111</elem>
      <elem id="1084">40,41,113,112</elem>
      <elem id="1085">41,42,114,113</elem>
      <elem id="1086">42,43,115,114</elem>
      <elem id="1087">43,44,116,115</elem>
      <elem id="1088">44,45,117,116</elem>
      <elem id="1089">45,46,118,117</elem>
      <elem id="1090">46,47,119,118</elem>
      <elem id="1091">47,48,120,119</elem>
      <elem id="1092">48,49,121,120</elem>
      <elem id="1093">49,50,122,121</elem>
      <elem id="1094">50,51,123,122</elem>
      <elem id="1095">51,52,124,123</elem>
      <elem id="1096">52,53,125,124</elem>
      <elem id="1097">53,54,126,125</elem>
      <elem id="1098">54,55,127,126</elem>
      <elem id="1099">55,56,128,127</elem>
      <elem id="1100">56,57,129,128</elem>
<!-- ... 1060 like lines cut -->
    </Elements>
    <Elements type="quad4" name="torso_surface_elements">
      <elem id="2161">2233,2234,2306,2305</elem>
      <elem id="2162">2234,2235,2307,2306</elem>
      <elem id="2163">2235,2236,2308,2307</elem>
      <elem id="2164">2236,2237,2309,2308</elem>
      <elem id="2165">2237,2238,2310,2309</elem>
      <elem id="2166">2238,2239,2311,2310</elem>
      <elem id="2167">2239,2240,2312,2311</elem>
      <elem id="2168">2240,2241,2313,2312</elem>
      <elem id="2169">2241,2242,2314,2313</elem>
      <elem id="2170">2242,2243,2315,2314</elem>
      <elem id="2171">2243,2244,2316,2315</elem>
      <elem id="2172">2244,2245,2317,2316</elem>
      <elem id="2173">2245,2246,2318,2317</elem>
      <elem id="2174">2246,2247,2319,2318</elem>
      <elem id="2175">2247,2248,2320,2319</elem>
      <elem id="2176">2248,2249,2321,2320</elem>
      <elem id="2177">2249,2250,2322,2321</elem>
      <elem id="2178">2250,2251,2323,2322</elem>
      <elem id="2179">2251,2252,2324,2323</elem>
      <elem id="2180">2252,2253,2325,2324</elem>
<!-- ... 2140 like lines cut -->
    </Elements>
    <NodeSet name="shirt_top_ring">2161,2162,2163,2164,2165,2166,2167,2168,2169,2170,2171,2172,2173,2174,2175,2176,2177,2178,2179,2180,2181,2182,2183,2184,2185,2186,2187,2188,2189,2190,2191,2192,2193,2194,2195,2196,2197,2198,2199,2200,2201,2202,2203,2204,2205,2206,2207,2208,2209,2210,2211,2212,2213,2214,2215,2216,2217,2218,2219,2220,2221,2222,2223,2224,2225,2226,2227,2228,2229,2230,2231,2232</Node
    <NodeSet name="shirt_top_node_0">2161</NodeSet>
    <NodeSet name="shirt_top_node_1">2162</NodeSet>
    <NodeSet name="shirt_top_node_2">2163</NodeSet>
    <NodeSet name="shirt_top_node_3">2164</NodeSet>
    <NodeSet name="shirt_top_node_4">2165</NodeSet>
    <NodeSet name="shirt_top_node_5">2166</NodeSet>
    <NodeSet name="shirt_top_node_6">2167</NodeSet>
    <NodeSet name="shirt_top_node_7">2168</NodeSet>
    <NodeSet name="shirt_top_node_8">2169</NodeSet>
    <NodeSet name="shirt_top_node_9">2170</NodeSet>
    <NodeSet name="shirt_top_node_10">2171</NodeSet>
    <NodeSet name="shirt_top_node_11">2172</NodeSet>
    <NodeSet name="shirt_top_node_12">2173</NodeSet>
    <NodeSet name="shirt_top_node_13">2174</NodeSet>
    <NodeSet name="shirt_top_node_14">2175</NodeSet>
    <NodeSet name="shirt_top_node_15">2176</NodeSet>
    <NodeSet name="shirt_top_node_16">2177</NodeSet>
    <NodeSet name="shirt_top_node_17">2178</NodeSet>
    <NodeSet name="shirt_top_node_18">2179</NodeSet>
    <NodeSet name="shirt_top_node_19">2180</NodeSet>
<!-- ... 52 like lines cut -->
    <NodeSet name="shirt_anchor_y">2161</NodeSet>
    <NodeSet name="shirt_anchor_x">2179</NodeSet>
    <NodeSet name="shirt_all_nodes">1,2,3,4,5,6,7,8,9,10,11,12,13,14,15,16,17,18,19,20,21,22,23,24,25,26,27,28,29,30,31,32,33,34,35,36,37,38,39,40,41,42,43,44,45,46,47,48,49,50,51,52,53,54,55,56,57,58,59,60,61,62,63,64,65,66,67,68,69,70,71,72,73,74,75,76,77,78,79,80,81,82,83,84,85,86,87,88,89,90,91,92,93,94,95,96,97,98,99,100,101,102,103,104,105,106,107,108,109,110,111,112,113,114,115,116,117,118,
    <NodeSet name="torso_all_nodes">2233,2234,2235,2236,2237,2238,2239,2240,2241,2242,2243,2244,2245,2246,2247,2248,2249,2250,2251,2252,2253,2254,2255,2256,2257,2258,2259,2260,2261,2262,2263,2264,2265,2266,2267,2268,2269,2270,2271,2272,2273,2274,2275,2276,2277,2278,2279,2280,2281,2282,2283,2284,2285,2286,2287,2288,2289,2290,2291,2292,2293,2294,2295,2296,2297,2298,2299,2300,2301,2302,2303,2304,2305
    <NodeSet name="torso_column_0">2233,2305,2377,2449,2521,2593,2665,2737,2809,2881,2953,3025,3097,3169,3241,3313,3385,3457,3529,3601,3673,3745,3817,3889,3961,4033,4105,4177,4249,4321,4393</NodeSet>
    <NodeSet name="torso_column_1">2234,2306,2378,2450,2522,2594,2666,2738,2810,2882,2954,3026,3098,3170,3242,3314,3386,3458,3530,3602,3674,3746,3818,3890,3962,4034,4106,4178,4250,4322,4394</NodeSet>
    <NodeSet name="torso_column_2">2235,2307,2379,2451,2523,2595,2667,2739,2811,2883,2955,3027,3099,3171,3243,3315,3387,3459,3531,3603,3675,3747,3819,3891,3963,4035,4107,4179,4251,4323,4395</NodeSet>
    <NodeSet name="torso_column_3">2236,2308,2380,2452,2524,2596,2668,2740,2812,2884,2956,3028,3100,3172,3244,3316,3388,3460,3532,3604,3676,3748,3820,3892,3964,4036,4108,4180,4252,4324,4396</NodeSet>
    <NodeSet name="torso_column_4">2237,2309,2381,2453,2525,2597,2669,2741,2813,2885,2957,3029,3101,3173,3245,3317,3389,3461,3533,3605,3677,3749,3821,3893,3965,4037,4109,4181,4253,4325,4397</NodeSet>
    <NodeSet name="torso_column_5">2238,2310,2382,2454,2526,2598,2670,2742,2814,2886,2958,3030,3102,3174,3246,3318,3390,3462,3534,3606,3678,3750,3822,3894,3966,4038,4110,4182,4254,4326,4398</NodeSet>
    <NodeSet name="torso_column_6">2239,2311,2383,2455,2527,2599,2671,2743,2815,2887,2959,3031,3103,3175,3247,3319,3391,3463,3535,3607,3679,3751,3823,3895,3967,4039,4111,4183,4255,4327,4399</NodeSet>
    <NodeSet name="torso_column_7">2240,2312,2384,2456,2528,2600,2672,2744,2816,2888,2960,3032,3104,3176,3248,3320,3392,3464,3536,3608,3680,3752,3824,3896,3968,4040,4112,4184,4256,4328,4400</NodeSet>
    <NodeSet name="torso_column_8">2241,2313,2385,2457,2529,2601,2673,2745,2817,2889,2961,3033,3105,3177,3249,3321,3393,3465,3537,3609,3681,3753,3825,3897,3969,4041,4113,4185,4257,4329,4401</NodeSet>
    <NodeSet name="torso_column_9">2242,2314,2386,2458,2530,2602,2674,2746,2818,2890,2962,3034,3106,3178,3250,3322,3394,3466,3538,3610,3682,3754,3826,3898,3970,4042,4114,4186,4258,4330,4402</NodeSet>
    <NodeSet name="torso_column_10">2243,2315,2387,2459,2531,2603,2675,2747,2819,2891,2963,3035,3107,3179,3251,3323,3395,3467,3539,3611,3683,3755,3827,3899,3971,4043,4115,4187,4259,4331,4403</NodeSet>
    <NodeSet name="torso_column_11">2244,2316,2388,2460,2532,2604,2676,2748,2820,2892,2964,3036,3108,3180,3252,3324,3396,3468,3540,3612,3684,3756,3828,3900,3972,4044,4116,4188,4260,4332,4404</NodeSet>
    <NodeSet name="torso_column_12">2245,2317,2389,2461,2533,2605,2677,2749,2821,2893,2965,3037,3109,3181,3253,3325,3397,3469,3541,3613,3685,3757,3829,3901,3973,4045,4117,4189,4261,4333,4405</NodeSet>
    <NodeSet name="torso_column_13">2246,2318,2390,2462,2534,2606,2678,2750,2822,2894,2966,3038,3110,3182,3254,3326,3398,3470,3542,3614,3686,3758,3830,3902,3974,4046,4118,4190,4262,4334,4406</NodeSet>
    <NodeSet name="torso_column_14">2247,2319,2391,2463,2535,2607,2679,2751,2823,2895,2967,3039,3111,3183,3255,3327,3399,3471,3543,3615,3687,3759,3831,3903,3975,4047,4119,4191,4263,4335,4407</NodeSet>
    <NodeSet name="torso_column_15">2248,2320,2392,2464,2536,2608,2680,2752,2824,2896,2968,3040,3112,3184,3256,3328,3400,3472,3544,3616,3688,3760,3832,3904,3976,4048,4120,4192,4264,4336,4408</NodeSet>
    <NodeSet name="torso_column_16">2249,2321,2393,2465,2537,2609,2681,2753,2825,2897,2969,3041,3113,3185,3257,3329,3401,3473,3545,3617,3689,3761,3833,3905,3977,4049,4121,4193,4265,4337,4409</NodeSet>
    <NodeSet name="torso_column_17">2250,2322,2394,2466,2538,2610,2682,2754,2826,2898,2970,3042,3114,3186,3258,3330,3402,3474,3546,3618,3690,3762,3834,3906,3978,4050,4122,4194,4266,4338,4410</NodeSet>
    <NodeSet name="torso_column_18">2251,2323,2395,2467,2539,2611,2683,2755,2827,2899,2971,3043,3115,3187,3259,3331,3403,3475,3547,3619,3691,3763,3835,3907,3979,4051,4123,4195,4267,4339,4411</NodeSet>
    <NodeSet name="torso_column_19">2252,2324,2396,2468,2540,2612,2684,2756,2828,2900,2972,3044,3116,3188,3260,3332,3404,3476,3548,3620,3692,3764,3836,3908,3980,4052,4124,4196,4268,4340,4412</NodeSet>
<!-- ... 52 like lines cut -->
    <ElementSet name="shirt_all">1,2,3,4,5,6,7,8,9,10,11,12,13,14,15,16,17,18,19,20,21,22,23,24,25,26,27,28,29,30,31,32,33,34,35,36,37,38,39,40,41,42,43,44,45,46,47,48,49,50,51,52,53,54,55,56,57,58,59,60,61,62,63,64,65,66,67,68,69,70,71,72,73,74,75,76,77,78,79,80,81,82,83,84,85,86,87,88,89,90,91,92,93,94,95,96,97,98,99,100,101,102,103,104,105,106,107,108,109,110,111,112,113,114,115,116,117,118,119
    <Surface name="shirt_on_torso_primary">
      <quad4 id="1">1,73,74,2</quad4>
      <quad4 id="2">2,74,75,3</quad4>
      <quad4 id="3">3,75,76,4</quad4>
      <quad4 id="4">4,76,77,5</quad4>
      <quad4 id="5">5,77,78,6</quad4>
      <quad4 id="6">6,78,79,7</quad4>
      <quad4 id="7">7,79,80,8</quad4>
      <quad4 id="8">8,80,81,9</quad4>
      <quad4 id="9">9,81,82,10</quad4>
      <quad4 id="10">10,82,83,11</quad4>
      <quad4 id="11">11,83,84,12</quad4>
      <quad4 id="12">12,84,85,13</quad4>
      <quad4 id="13">13,85,86,14</quad4>
      <quad4 id="14">14,86,87,15</quad4>
      <quad4 id="15">15,87,88,16</quad4>
      <quad4 id="16">16,88,89,17</quad4>
      <quad4 id="17">17,89,90,18</quad4>
      <quad4 id="18">18,90,91,19</quad4>
      <quad4 id="19">19,91,92,20</quad4>
      <quad4 id="20">20,92,93,21</quad4>
<!-- ... 2140 like lines cut -->
    </Surface>
    <Surface name="shirt_on_torso_secondary">
      <quad4 id="1">2233,2234,2306,2305</quad4>
      <quad4 id="2">2234,2235,2307,2306</quad4>
      <quad4 id="3">2235,2236,2308,2307</quad4>
      <quad4 id="4">2236,2237,2309,2308</quad4>
      <quad4 id="5">2237,2238,2310,2309</quad4>
      <quad4 id="6">2238,2239,2311,2310</quad4>
      <quad4 id="7">2239,2240,2312,2311</quad4>
      <quad4 id="8">2240,2241,2313,2312</quad4>
      <quad4 id="9">2241,2242,2314,2313</quad4>
      <quad4 id="10">2242,2243,2315,2314</quad4>
      <quad4 id="11">2243,2244,2316,2315</quad4>
      <quad4 id="12">2244,2245,2317,2316</quad4>
      <quad4 id="13">2245,2246,2318,2317</quad4>
      <quad4 id="14">2246,2247,2319,2318</quad4>
      <quad4 id="15">2247,2248,2320,2319</quad4>
      <quad4 id="16">2248,2249,2321,2320</quad4>
      <quad4 id="17">2249,2250,2322,2321</quad4>
      <quad4 id="18">2250,2251,2323,2322</quad4>
      <quad4 id="19">2251,2252,2324,2323</quad4>
      <quad4 id="20">2252,2253,2325,2324</quad4>
<!-- ... 2140 like lines cut -->
    </Surface>
    <Surface name="shirt_pressure_surface">
      <quad4 id="1">1,2,74,73</quad4>
      <quad4 id="2">2,3,75,74</quad4>
      <quad4 id="3">3,4,76,75</quad4>
      <quad4 id="4">4,5,77,76</quad4>
      <quad4 id="5">5,6,78,77</quad4>
      <quad4 id="6">6,7,79,78</quad4>
      <quad4 id="7">7,8,80,79</quad4>
      <quad4 id="8">8,9,81,80</quad4>
      <quad4 id="9">9,10,82,81</quad4>
      <quad4 id="10">10,11,83,82</quad4>
      <quad4 id="11">11,12,84,83</quad4>
      <quad4 id="12">12,13,85,84</quad4>
      <quad4 id="13">13,14,86,85</quad4>
      <quad4 id="14">14,15,87,86</quad4>
      <quad4 id="15">15,16,88,87</quad4>
      <quad4 id="16">16,17,89,88</quad4>
      <quad4 id="17">17,18,90,89</quad4>
      <quad4 id="18">18,19,91,90</quad4>
      <quad4 id="19">19,20,92,91</quad4>
      <quad4 id="20">20,21,93,92</quad4>
<!-- ... 2140 like lines cut -->
    </Surface>
    <SurfacePair name="shirt_torso_pair">
      <primary>shirt_on_torso_primary</primary>
      <secondary>shirt_on_torso_secondary</secondary>
    </SurfacePair>
  </Mesh>
  <MeshDomains>
    <ShellDomain name="shirt_front" mat="textile_provisional" type="elastic-shell">
      <shell_thickness>1.6</shell_thickness>
    </ShellDomain>
    <ShellDomain name="shirt_back" mat="textile_provisional" type="elastic-shell">
      <shell_thickness>1.6</shell_thickness>
    </ShellDomain>
    <ShellDomain name="torso_surface_elements" mat="torso_fixed" type="elastic-shell">
      <shell_thickness>1.0</shell_thickness>
    </ShellDomain>
  </MeshDomains>
  <Boundary>
    <bc name="both_arms_raise_x_0" type="prescribed displacement" node_set="shirt_top_node_0">
      <dof>x</dof>
      <value lc="2">1.6875</value>
    </bc>
    <bc name="both_arms_raise_z_0" type="prescribed displacement" node_set="shirt_top_node_0">
      <dof>z</dof>
      <value lc="2">9.75</value>
    </bc>
    <bc name="both_arms_raise_x_1" type="prescribed displacement" node_set="shirt_top_node_1">
      <dof>x</dof>
      <value lc="2">1.68107855303</value>
    </bc>
    <bc name="both_arms_raise_z_1" type="prescribed displacement" node_set="shirt_top_node_1">
      <dof>z</dof>
      <value lc="2">9.71667200817</value>
    </bc>
    <bc name="both_arms_raise_x_2" type="prescribed displacement" node_set="shirt_top_node_2">
      <dof>x</dof>
      <value lc="2">1.66186308321</value>
    </bc>
    <bc name="both_arms_raise_z_2" type="prescribed displacement" node_set="shirt_top_node_2">
      <dof>z</dof>
      <value lc="2">9.61770068685</value>
    </bc>
    <bc name="both_arms_raise_x_3" type="prescribed displacement" node_set="shirt_top_node_3">
      <dof>x</dof>
      <value lc="2">1.62999983186</value>
    </bc>
    <bc name="both_arms_raise_z_3" type="prescribed displacement" node_set="shirt_top_node_3">
      <dof>z</dof>
      <value lc="2">9.45609322955</value>
    </bc>
    <bc name="both_arms_raise_x_4" type="prescribed displacement" node_set="shirt_top_node_4">
      <dof>x</dof>
      <value lc="2">1.58573129758</value>
    </bc>
    <bc name="both_arms_raise_z_4" type="prescribed displacement" node_set="shirt_top_node_4">
      <dof>z</dof>
      <value lc="2">9.23675999709</value>
    </bc>
    <bc name="both_arms_raise_x_5" type="prescribed displacement" node_set="shirt_top_node_5">
      <dof>x</dof>
      <value lc="2">1.52939439062</value>
    </bc>
    <bc name="both_arms_raise_z_5" type="prescribed displacement" node_set="shirt_top_node_5">
      <dof>z</dof>
      <value lc="2">8.96636531875</value>
    </bc>
    <bc name="both_arms_raise_x_6" type="prescribed displacement" node_set="shirt_top_node_6">
      <dof>x</dof>
      <value lc="2">1.46141786889</value>
    </bc>
    <bc name="both_arms_raise_z_6" type="prescribed displacement" node_set="shirt_top_node_6">
      <dof>z</dof>
      <value lc="2">8.653125</value>
    </bc>
    <bc name="both_arms_raise_x_7" type="prescribed displacement" node_set="shirt_top_node_7">
      <dof>x</dof>
      <value lc="2">1.38231907474</value>
    </bc>
    <bc name="both_arms_raise_z_7" type="prescribed displacement" node_set="shirt_top_node_7">
      <dof>z</dof>
      <value lc="2">8.30655668942</value>
    </bc>
    <bc name="both_arms_raise_x_8" type="prescribed displacement" node_set="shirt_top_node_8">
      <dof>x</dof>
      <value lc="2">1.29269999776</value>
    </bc>
    <bc name="both_arms_raise_z_8" type="prescribed displacement" node_set="shirt_top_node_8">
      <dof>z</dof>
      <value lc="2">7.93719068976</value>
    </bc>
    <bc name="both_arms_raise_x_9" type="prescribed displacement" node_set="shirt_top_node_9">
      <dof>x</dof>
      <value lc="2">1.19324269325</value>
    </bc>
    <bc name="both_arms_raise_z_9" type="prescribed displacement" node_set="shirt_top_node_9">
      <dof>z</dof>
      <value lc="2">7.55625</value>
    </bc>
    <bc name="both_arms_raise_x_10" type="prescribed displacement" node_set="shirt_top_node_10">
      <dof>x</dof>
      <value lc="2">1.08470409135</value>
    </bc>
    <bc name="both_arms_raise_z_10" type="prescribed displacement" node_set="shirt_top_node_10">
      <dof>z</dof>
      <value lc="2">7.17530931024</value>
    </bc>
    <bc name="both_arms_raise_x_11" type="prescribed displacement" node_set="shirt_top_node_11">
      <dof>x</dof>
      <value lc="2">0.967910236342</value>
    </bc>
    <bc name="both_arms_raise_z_11" type="prescribed displacement" node_set="shirt_top_node_11">
      <dof>z</dof>
      <value lc="2">6.80594331058</value>
    </bc>
    <bc name="both_arms_raise_x_12" type="prescribed displacement" node_set="shirt_top_node_12">
      <dof>x</dof>
      <value lc="2">0.84375</value>
    </bc>
    <bc name="both_arms_raise_z_12" type="prescribed displacement" node_set="shirt_top_node_12">
      <dof>z</dof>
      <value lc="2">6.459375</value>
    </bc>
    <bc name="both_arms_raise_x_13" type="prescribed displacement" node_set="shirt_top_node_13">
      <dof>x</dof>
      <value lc="2">0.713168316687</value>
    </bc>
    <bc name="both_arms_raise_z_13" type="prescribed displacement" node_set="shirt_top_node_13">
      <dof>z</dof>
      <value lc="2">6.14613468125</value>
    </bc>
    <bc name="both_arms_raise_x_14" type="prescribed displacement" node_set="shirt_top_node_14">
      <dof>x</dof>
      <value lc="2">0.577158991862</value>
    </bc>
    <bc name="both_arms_raise_z_14" type="prescribed displacement" node_set="shirt_top_node_14">
      <dof>z</dof>
      <value lc="2">5.87574000291</value>
    </bc>
    <bc name="both_arms_raise_x_15" type="prescribed displacement" node_set="shirt_top_node_15">
      <dof>x</dof>
      <value lc="2">0.436757138611</value>
    </bc>
    <bc name="both_arms_raise_z_15" type="prescribed displacement" node_set="shirt_top_node_15">
      <dof>z</dof>
      <value lc="2">5.65640677045</value>
    </bc>
    <bc name="both_arms_raise_x_16" type="prescribed displacement" node_set="shirt_top_node_16">
      <dof>x</dof>
      <value lc="2">0.293031299813</value>
    </bc>
    <bc name="both_arms_raise_z_16" type="prescribed displacement" node_set="shirt_top_node_16">
      <dof>z</dof>
      <value lc="2">5.49479931315</value>
    </bc>
    <bc name="both_arms_raise_x_17" type="prescribed displacement" node_set="shirt_top_node_17">
      <dof>x</dof>
      <value lc="2">0.147075315887</value>
    </bc>
    <bc name="both_arms_raise_z_17" type="prescribed displacement" node_set="shirt_top_node_17">
      <dof>z</dof>
      <value lc="2">5.39582799183</value>
    </bc>
    <bc name="both_arms_raise_x_18" type="prescribed displacement" node_set="shirt_top_node_18">
      <dof>x</dof>
      <value lc="2">1.03329573678e-16</value>
    </bc>
    <bc name="both_arms_raise_z_18" type="prescribed displacement" node_set="shirt_top_node_18">
      <dof>z</dof>
      <value lc="2">5.3625</value>
    </bc>
    <bc name="both_arms_raise_x_19" type="prescribed displacement" node_set="shirt_top_node_19">
      <dof>x</dof>
      <value lc="2">-0.147075315887</value>
    </bc>
    <bc name="both_arms_raise_z_19" type="prescribed displacement" node_set="shirt_top_node_19">
      <dof>z</dof>
      <value lc="2">5.39582799183</value>
    </bc>
    <bc name="both_arms_raise_x_20" type="prescribed displacement" node_set="shirt_top_node_20">
      <dof>x</dof>
      <value lc="2">-0.293031299813</value>
    </bc>
    <bc name="both_arms_raise_z_20" type="prescribed displacement" node_set="shirt_top_node_20">
      <dof>z</dof>
      <value lc="2">5.49479931315</value>
    </bc>
    <bc name="both_arms_raise_x_21" type="prescribed displacement" node_set="shirt_top_node_21">
      <dof>x</dof>
      <value lc="2">-0.436757138611</value>
    </bc>
    <bc name="both_arms_raise_z_21" type="prescribed displacement" node_set="shirt_top_node_21">
      <dof>z</dof>
      <value lc="2">5.65640677045</value>
    </bc>
    <bc name="both_arms_raise_x_22" type="prescribed displacement" node_set="shirt_top_node_22">
      <dof>x</dof>
      <value lc="2">-0.577158991862</value>
    </bc>
    <bc name="both_arms_raise_z_22" type="prescribed displacement" node_set="shirt_top_node_22">
      <dof>z</dof>
      <value lc="2">5.87574000291</value>
    </bc>
    <bc name="both_arms_raise_x_23" type="prescribed displacement" node_set="shirt_top_node_23">
      <dof>x</dof>
      <value lc="2">-0.713168316687</value>
    </bc>
    <bc name="both_arms_raise_z_23" type="prescribed displacement" node_set="shirt_top_node_23">
      <dof>z</dof>
      <value lc="2">6.14613468125</value>
    </bc>
    <bc name="both_arms_raise_x_24" type="prescribed displacement" node_set="shirt_top_node_24">
      <dof>x</dof>
      <value lc="2">-0.84375</value>
    </bc>
    <bc name="both_arms_raise_z_24" type="prescribed displacement" node_set="shirt_top_node_24">
      <dof>z</dof>
      <value lc="2">6.459375</value>
    </bc>
    <bc name="both_arms_raise_x_25" type="prescribed displacement" node_set="shirt_top_node_25">
      <dof>x</dof>
      <value lc="2">-0.967910236342</value>
    </bc>
    <bc name="both_arms_raise_z_25" type="prescribed displacement" node_set="shirt_top_node_25">
      <dof>z</dof>
      <value lc="2">6.80594331058</value>
    </bc>
    <bc name="both_arms_raise_x_26" type="prescribed displacement" node_set="shirt_top_node_26">
      <dof>x</dof>
      <value lc="2">-1.08470409135</value>
    </bc>
    <bc name="both_arms_raise_z_26" type="prescribed displacement" node_set="shirt_top_node_26">
      <dof>z</dof>
      <value lc="2">7.17530931024</value>
    </bc>
    <bc name="both_arms_raise_x_27" type="prescribed displacement" node_set="shirt_top_node_27">
      <dof>x</dof>
      <value lc="2">-1.19324269325</value>
    </bc>
    <bc name="both_arms_raise_z_27" type="prescribed displacement" node_set="shirt_top_node_27">
      <dof>z</dof>
      <value lc="2">7.55625</value>
    </bc>
    <bc name="both_arms_raise_x_28" type="prescribed displacement" node_set="shirt_top_node_28">
      <dof>x</dof>
      <value lc="2">-1.29269999776</value>
    </bc>
    <bc name="both_arms_raise_z_28" type="prescribed displacement" node_set="shirt_top_node_28">
      <dof>z</dof>
      <value lc="2">7.93719068976</value>
    </bc>
    <bc name="both_arms_raise_x_29" type="prescribed displacement" node_set="shirt_top_node_29">
      <dof>x</dof>
      <value lc="2">-1.38231907474</value>
    </bc>
    <bc name="both_arms_raise_z_29" type="prescribed displacement" node_set="shirt_top_node_29">
      <dof>z</dof>
      <value lc="2">8.30655668942</value>
    </bc>
    <bc name="both_arms_raise_x_30" type="prescribed displacement" node_set="shirt_top_node_30">
      <dof>x</dof>
      <value lc="2">-1.46141786889</value>
    </bc>
    <bc name="both_arms_raise_z_30" type="prescribed displacement" node_set="shirt_top_node_30">
      <dof>z</dof>
      <value lc="2">8.653125</value>
    </bc>
    <bc name="both_arms_raise_x_31" type="prescribed displacement" node_set="shirt_top_node_31">
      <dof>x</dof>
      <value lc="2">-1.52939439062</value>
    </bc>
    <bc name="both_arms_raise_z_31" type="prescribed displacement" node_set="shirt_top_node_31">
      <dof>z</dof>
      <value lc="2">8.96636531875</value>
    </bc>
    <bc name="both_arms_raise_x_32" type="prescribed displacement" node_set="shirt_top_node_32">
      <dof>x</dof>
      <value lc="2">-1.58573129758</value>
    </bc>
    <bc name="both_arms_raise_z_32" type="prescribed displacement" node_set="shirt_top_node_32">
      <dof>z</dof>
      <value lc="2">9.23675999709</value>
    </bc>
    <bc name="both_arms_raise_x_33" type="prescribed displacement" node_set="shirt_top_node_33">
      <dof>x</dof>
      <value lc="2">-1.62999983186</value>
    </bc>
    <bc name="both_arms_raise_z_33" type="prescribed displacement" node_set="shirt_top_node_33">
      <dof>z</dof>
      <value lc="2">9.45609322955</value>
    </bc>
    <bc name="both_arms_raise_x_34" type="prescribed displacement" node_set="shirt_top_node_34">
      <dof>x</dof>
      <value lc="2">-1.66186308321</value>
    </bc>
    <bc name="both_arms_raise_z_34" type="prescribed displacement" node_set="shirt_top_node_34">
      <dof>z</dof>
      <value lc="2">9.61770068685</value>
    </bc>
    <bc name="both_arms_raise_x_35" type="prescribed displacement" node_set="shirt_top_node_35">
      <dof>x</dof>
      <value lc="2">-1.68107855303</value>
    </bc>
    <bc name="both_arms_raise_z_35" type="prescribed displacement" node_set="shirt_top_node_35">
      <dof>z</dof>
      <value lc="2">9.71667200817</value>
    </bc>
    <bc name="both_arms_raise_x_36" type="prescribed displacement" node_set="shirt_top_node_36">
      <dof>x</dof>
      <value lc="2">-1.6875</value>
    </bc>
    <bc name="both_arms_raise_z_36" type="prescribed displacement" node_set="shirt_top_node_36">
      <dof>z</dof>
      <value lc="2">9.75</value>
    </bc>
    <bc name="both_arms_raise_x_37" type="prescribed displacement" node_set="shirt_top_node_37">
      <dof>x</dof>
      <value lc="2">-1.68107855303</value>
    </bc>
    <bc name="both_arms_raise_z_37" type="prescribed displacement" node_set="shirt_top_node_37">
      <dof>z</dof>
      <value lc="2">9.71667200817</value>
    </bc>
    <bc name="both_arms_raise_x_38" type="prescribed displacement" node_set="shirt_top_node_38">
      <dof>x</dof>
      <value lc="2">-1.66186308321</value>
    </bc>
    <bc name="both_arms_raise_z_38" type="prescribed displacement" node_set="shirt_top_node_38">
      <dof>z</dof>
      <value lc="2">9.61770068685</value>
    </bc>
    <bc name="both_arms_raise_x_39" type="prescribed displacement" node_set="shirt_top_node_39">
      <dof>x</dof>
      <value lc="2">-1.62999983186</value>
    </bc>
    <bc name="both_arms_raise_z_39" type="prescribed displacement" node_set="shirt_top_node_39">
      <dof>z</dof>
      <value lc="2">9.45609322955</value>
    </bc>
    <bc name="both_arms_raise_x_40" type="prescribed displacement" node_set="shirt_top_node_40">
      <dof>x</dof>
      <value lc="2">-1.58573129758</value>
    </bc>
    <bc name="both_arms_raise_z_40" type="prescribed displacement" node_set="shirt_top_node_40">
      <dof>z</dof>
      <value lc="2">9.23675999709</value>
    </bc>
    <bc name="both_arms_raise_x_41" type="prescribed displacement" node_set="shirt_top_node_41">
      <dof>x</dof>
      <value lc="2">-1.52939439062</value>
    </bc>
    <bc name="both_arms_raise_z_41" type="prescribed displacement" node_set="shirt_top_node_41">
      <dof>z</dof>
      <value lc="2">8.96636531875</value>
    </bc>
    <bc name="both_arms_raise_x_42" type="prescribed displacement" node_set="shirt_top_node_42">
      <dof>x</dof>
      <value lc="2">-1.46141786889</value>
    </bc>
    <bc name="both_arms_raise_z_42" type="prescribed displacement" node_set="shirt_top_node_42">
      <dof>z</dof>
      <value lc="2">8.653125</value>
    </bc>
    <bc name="both_arms_raise_x_43" type="prescribed displacement" node_set="shirt_top_node_43">
      <dof>x</dof>
      <value lc="2">-1.38231907474</value>
    </bc>
    <bc name="both_arms_raise_z_43" type="prescribed displacement" node_set="shirt_top_node_43">
      <dof>z</dof>
      <value lc="2">8.30655668942</value>
    </bc>
    <bc name="both_arms_raise_x_44" type="prescribed displacement" node_set="shirt_top_node_44">
      <dof>x</dof>
      <value lc="2">-1.29269999776</value>
    </bc>
    <bc name="both_arms_raise_z_44" type="prescribed displacement" node_set="shirt_top_node_44">
      <dof>z</dof>
      <value lc="2">7.93719068976</value>
    </bc>
    <bc name="both_arms_raise_x_45" type="prescribed displacement" node_set="shirt_top_node_45">
      <dof>x</dof>
      <value lc="2">-1.19324269325</value>
    </bc>
    <bc name="both_arms_raise_z_45" type="prescribed displacement" node_set="shirt_top_node_45">
      <dof>z</dof>
      <value lc="2">7.55625</value>
    </bc>
    <bc name="both_arms_raise_x_46" type="prescribed displacement" node_set="shirt_top_node_46">
      <dof>x</dof>
      <value lc="2">-1.08470409135</value>
    </bc>
    <bc name="both_arms_raise_z_46" type="prescribed displacement" node_set="shirt_top_node_46">
      <dof>z</dof>
      <value lc="2">7.17530931024</value>
    </bc>
    <bc name="both_arms_raise_x_47" type="prescribed displacement" node_set="shirt_top_node_47">
      <dof>x</dof>
      <value lc="2">-0.967910236342</value>
    </bc>
    <bc name="both_arms_raise_z_47" type="prescribed displacement" node_set="shirt_top_node_47">
      <dof>z</dof>
      <value lc="2">6.80594331058</value>
    </bc>
    <bc name="both_arms_raise_x_48" type="prescribed displacement" node_set="shirt_top_node_48">
      <dof>x</dof>
      <value lc="2">-0.84375</value>
    </bc>
    <bc name="both_arms_raise_z_48" type="prescribed displacement" node_set="shirt_top_node_48">
      <dof>z</dof>
      <value lc="2">6.459375</value>
    </bc>
    <bc name="both_arms_raise_x_49" type="prescribed displacement" node_set="shirt_top_node_49">
      <dof>x</dof>
      <value lc="2">-0.713168316687</value>
    </bc>
    <bc name="both_arms_raise_z_49" type="prescribed displacement" node_set="shirt_top_node_49">
      <dof>z</dof>
      <value lc="2">6.14613468125</value>
    </bc>
    <bc name="both_arms_raise_x_50" type="prescribed displacement" node_set="shirt_top_node_50">
      <dof>x</dof>
      <value lc="2">-0.577158991862</value>
    </bc>
    <bc name="both_arms_raise_z_50" type="prescribed displacement" node_set="shirt_top_node_50">
      <dof>z</dof>
      <value lc="2">5.87574000291</value>
    </bc>
    <bc name="both_arms_raise_x_51" type="prescribed displacement" node_set="shirt_top_node_51">
      <dof>x</dof>
      <value lc="2">-0.436757138611</value>
    </bc>
    <bc name="both_arms_raise_z_51" type="prescribed displacement" node_set="shirt_top_node_51">
      <dof>z</dof>
      <value lc="2">5.65640677045</value>
    </bc>
    <bc name="both_arms_raise_x_52" type="prescribed displacement" node_set="shirt_top_node_52">
      <dof>x</dof>
      <value lc="2">-0.293031299813</value>
    </bc>
    <bc name="both_arms_raise_z_52" type="prescribed displacement" node_set="shirt_top_node_52">
      <dof>z</dof>
      <value lc="2">5.49479931315</value>
    </bc>
    <bc name="both_arms_raise_x_53" type="prescribed displacement" node_set="shirt_top_node_53">
      <dof>x</dof>
      <value lc="2">-0.147075315887</value>
    </bc>
    <bc name="both_arms_raise_z_53" type="prescribed displacement" node_set="shirt_top_node_53">
      <dof>z</dof>
      <value lc="2">5.39582799183</value>
    </bc>
    <bc name="both_arms_raise_x_54" type="prescribed displacement" node_set="shirt_top_node_54">
      <dof>x</dof>
      <value lc="2">-3.09988721034e-16</value>
    </bc>
    <bc name="both_arms_raise_z_54" type="prescribed displacement" node_set="shirt_top_node_54">
      <dof>z</dof>
      <value lc="2">5.3625</value>
    </bc>
    <bc name="both_arms_raise_x_55" type="prescribed displacement" node_set="shirt_top_node_55">
      <dof>x</dof>
      <value lc="2">0.147075315887</value>
    </bc>
    <bc name="both_arms_raise_z_55" type="prescribed displacement" node_set="shirt_top_node_55">
      <dof>z</dof>
      <value lc="2">5.39582799183</value>
    </bc>
    <bc name="both_arms_raise_x_56" type="prescribed displacement" node_set="shirt_top_node_56">
      <dof>x</dof>
      <value lc="2">0.293031299813</value>
    </bc>
    <bc name="both_arms_raise_z_56" type="prescribed displacement" node_set="shirt_top_node_56">
      <dof>z</dof>
      <value lc="2">5.49479931315</value>
    </bc>
    <bc name="both_arms_raise_x_57" type="prescribed displacement" node_set="shirt_top_node_57">
      <dof>x</dof>
      <value lc="2">0.436757138611</value>
    </bc>
    <bc name="both_arms_raise_z_57" type="prescribed displacement" node_set="shirt_top_node_57">
      <dof>z</dof>
      <value lc="2">5.65640677045</value>
    </bc>
    <bc name="both_arms_raise_x_58" type="prescribed displacement" node_set="shirt_top_node_58">
      <dof>x</dof>
      <value lc="2">0.577158991862</value>
    </bc>
    <bc name="both_arms_raise_z_58" type="prescribed displacement" node_set="shirt_top_node_58">
      <dof>z</dof>
      <value lc="2">5.87574000291</value>
    </bc>
    <bc name="both_arms_raise_x_59" type="prescribed displacement" node_set="shirt_top_node_59">
      <dof>x</dof>
      <value lc="2">0.713168316687</value>
    </bc>
    <bc name="both_arms_raise_z_59" type="prescribed displacement" node_set="shirt_top_node_59">
      <dof>z</dof>
      <value lc="2">6.14613468125</value>
    </bc>
    <bc name="both_arms_raise_x_60" type="prescribed displacement" node_set="shirt_top_node_60">
      <dof>x</dof>
      <value lc="2">0.84375</value>
    </bc>
    <bc name="both_arms_raise_z_60" type="prescribed displacement" node_set="shirt_top_node_60">
      <dof>z</dof>
      <value lc="2">6.459375</value>
    </bc>
    <bc name="both_arms_raise_x_61" type="prescribed displacement" node_set="shirt_top_node_61">
      <dof>x</dof>
      <value lc="2">0.967910236342</value>
    </bc>
    <bc name="both_arms_raise_z_61" type="prescribed displacement" node_set="shirt_top_node_61">
      <dof>z</dof>
      <value lc="2">6.80594331058</value>
    </bc>
    <bc name="both_arms_raise_x_62" type="prescribed displacement" node_set="shirt_top_node_62">
      <dof>x</dof>
      <value lc="2">1.08470409135</value>
    </bc>
    <bc name="both_arms_raise_z_62" type="prescribed displacement" node_set="shirt_top_node_62">
      <dof>z</dof>
      <value lc="2">7.17530931024</value>
    </bc>
    <bc name="both_arms_raise_x_63" type="prescribed displacement" node_set="shirt_top_node_63">
      <dof>x</dof>
      <value lc="2">1.19324269325</value>
    </bc>
    <bc name="both_arms_raise_z_63" type="prescribed displacement" node_set="shirt_top_node_63">
      <dof>z</dof>
      <value lc="2">7.55625</value>
    </bc>
    <bc name="both_arms_raise_x_64" type="prescribed displacement" node_set="shirt_top_node_64">
      <dof>x</dof>
      <value lc="2">1.29269999776</value>
    </bc>
    <bc name="both_arms_raise_z_64" type="prescribed displacement" node_set="shirt_top_node_64">
      <dof>z</dof>
      <value lc="2">7.93719068976</value>
    </bc>
    <bc name="both_arms_raise_x_65" type="prescribed displacement" node_set="shirt_top_node_65">
      <dof>x</dof>
      <value lc="2">1.38231907474</value>
    </bc>
    <bc name="both_arms_raise_z_65" type="prescribed displacement" node_set="shirt_top_node_65">
      <dof>z</dof>
      <value lc="2">8.30655668942</value>
    </bc>
    <bc name="both_arms_raise_x_66" type="prescribed displacement" node_set="shirt_top_node_66">
      <dof>x</dof>
      <value lc="2">1.46141786889</value>
    </bc>
    <bc name="both_arms_raise_z_66" type="prescribed displacement" node_set="shirt_top_node_66">
      <dof>z</dof>
      <value lc="2">8.653125</value>
    </bc>
    <bc name="both_arms_raise_x_67" type="prescribed displacement" node_set="shirt_top_node_67">
      <dof>x</dof>
      <value lc="2">1.52939439062</value>
    </bc>
    <bc name="both_arms_raise_z_67" type="prescribed displacement" node_set="shirt_top_node_67">
      <dof>z</dof>
      <value lc="2">8.96636531875</value>
    </bc>
    <bc name="both_arms_raise_x_68" type="prescribed displacement" node_set="shirt_top_node_68">
      <dof>x</dof>
      <value lc="2">1.58573129758</value>
    </bc>
    <bc name="both_arms_raise_z_68" type="prescribed displacement" node_set="shirt_top_node_68">
      <dof>z</dof>
      <value lc="2">9.23675999709</value>
    </bc>
    <bc name="both_arms_raise_x_69" type="prescribed displacement" node_set="shirt_top_node_69">
      <dof>x</dof>
      <value lc="2">1.62999983186</value>
    </bc>
    <bc name="both_arms_raise_z_69" type="prescribed displacement" node_set="shirt_top_node_69">
      <dof>z</dof>
      <value lc="2">9.45609322955</value>
    </bc>
    <bc name="both_arms_raise_x_70" type="prescribed displacement" node_set="shirt_top_node_70">
      <dof>x</dof>
      <value lc="2">1.66186308321</value>
    </bc>
    <bc name="both_arms_raise_z_70" type="prescribed displacement" node_set="shirt_top_node_70">
      <dof>z</dof>
      <value lc="2">9.61770068685</value>
    </bc>
    <bc name="both_arms_raise_x_71" type="prescribed displacement" node_set="shirt_top_node_71">
      <dof>x</dof>
      <value lc="2">1.68107855303</value>
    </bc>
    <bc name="both_arms_raise_z_71" type="prescribed displacement" node_set="shirt_top_node_71">
      <dof>z</dof>
      <value lc="2">9.71667200817</value>
    </bc>
    <bc name="remove_y_translation" type="zero displacement" node_set="shirt_anchor_y">
      <y_dof>1</y_dof>
    </bc>
    <bc name="remove_x_translation" type="zero displacement" node_set="shirt_anchor_x">
      <x_dof>1</x_dof>
    </bc>
    <bc name="fixed_torso_axial" type="zero displacement" node_set="torso_all_nodes">
      <z_dof>1</z_dof>
    </bc>
    <bc name="expand_torso_x_0" type="prescribed displacement" node_set="torso_column_0">
      <dof>x</dof>
      <value lc="1">0.6</value>
    </bc>
    <bc name="expand_torso_y_0" type="prescribed displacement" node_set="torso_column_0">
      <dof>y</dof>
      <value lc="1">0</value>
    </bc>
    <bc name="expand_torso_x_1" type="prescribed displacement" node_set="torso_column_1">
      <dof>x</dof>
      <value lc="1">0.597716818855</value>
    </bc>
    <bc name="expand_torso_y_1" type="prescribed displacement" node_set="torso_column_1">
      <dof>y</dof>
      <value lc="1">0.0522934456486</value>
    </bc>
    <bc name="expand_torso_x_2" type="prescribed displacement" node_set="torso_column_2">
      <dof>x</dof>
      <value lc="1">0.590884651807</value>
    </bc>
    <bc name="expand_torso_y_2" type="prescribed displacement" node_set="torso_column_2">
      <dof>y</dof>
      <value lc="1">0.1041889066</value>
    </bc>
    <bc name="expand_torso_x_3" type="prescribed displacement" node_set="torso_column_3">
      <dof>x</dof>
      <value lc="1">0.579555495773</value>
    </bc>
    <bc name="expand_torso_y_3" type="prescribed displacement" node_set="torso_column_3">
      <dof>y</dof>
      <value lc="1">0.155291427062</value>
    </bc>
    <bc name="expand_torso_x_4" type="prescribed displacement" node_set="torso_column_4">
      <dof>x</dof>
      <value lc="1">0.563815572472</value>
    </bc>
    <bc name="expand_torso_y_4" type="prescribed displacement" node_set="torso_column_4">
      <dof>y</dof>
      <value lc="1">0.205212085995</value>
    </bc>
    <bc name="expand_torso_x_5" type="prescribed displacement" node_set="torso_column_5">
      <dof>x</dof>
      <value lc="1">0.543784672222</value>
    </bc>
    <bc name="expand_torso_y_5" type="prescribed displacement" node_set="torso_column_5">
      <dof>y</dof>
      <value lc="1">0.253570957044</value>
    </bc>
    <bc name="expand_torso_x_6" type="prescribed displacement" node_set="torso_column_6">
      <dof>x</dof>
      <value lc="1">0.519615242271</value>
    </bc>
    <bc name="expand_torso_y_6" type="prescribed displacement" node_set="torso_column_6">
      <dof>y</dof>
      <value lc="1">0.3</value>
    </bc>
    <bc name="expand_torso_x_7" type="prescribed displacement" node_set="torso_column_7">
      <dof>x</dof>
      <value lc="1">0.491491226573</value>
    </bc>
    <bc name="expand_torso_y_7" type="prescribed displacement" node_set="torso_column_7">
      <dof>y</dof>
      <value lc="1">0.344145861811</value>
    </bc>
    <bc name="expand_torso_x_8" type="prescribed displacement" node_set="torso_column_8">
      <dof>x</dof>
      <value lc="1">0.459626665871</value>
    </bc>
    <bc name="expand_torso_y_8" type="prescribed displacement" node_set="torso_column_8">
      <dof>y</dof>
      <value lc="1">0.385672565812</value>
    </bc>
    <bc name="expand_torso_x_9" type="prescribed displacement" node_set="torso_column_9">
      <dof>x</dof>
      <value lc="1">0.424264068712</value>
    </bc>
    <bc name="expand_torso_y_9" type="prescribed displacement" node_set="torso_column_9">
      <dof>y</dof>
      <value lc="1">0.424264068712</value>
    </bc>
    <bc name="expand_torso_x_10" type="prescribed displacement" node_set="torso_column_10">
      <dof>x</dof>
      <value lc="1">0.385672565812</value>
    </bc>
    <bc name="expand_torso_y_10" type="prescribed displacement" node_set="torso_column_10">
      <dof>y</dof>
      <value lc="1">0.459626665871</value>
    </bc>
    <bc name="expand_torso_x_11" type="prescribed displacement" node_set="torso_column_11">
      <dof>x</dof>
      <value lc="1">0.344145861811</value>
    </bc>
    <bc name="expand_torso_y_11" type="prescribed displacement" node_set="torso_column_11">
      <dof>y</dof>
      <value lc="1">0.491491226573</value>
    </bc>
    <bc name="expand_torso_x_12" type="prescribed displacement" node_set="torso_column_12">
      <dof>x</dof>
      <value lc="1">0.3</value>
    </bc>
    <bc name="expand_torso_y_12" type="prescribed displacement" node_set="torso_column_12">
      <dof>y</dof>
      <value lc="1">0.519615242271</value>
    </bc>
    <bc name="expand_torso_x_13" type="prescribed displacement" node_set="torso_column_13">
      <dof>x</dof>
      <value lc="1">0.253570957044</value>
    </bc>
    <bc name="expand_torso_y_13" type="prescribed displacement" node_set="torso_column_13">
      <dof>y</dof>
      <value lc="1">0.543784672222</value>
    </bc>
    <bc name="expand_torso_x_14" type="prescribed displacement" node_set="torso_column_14">
      <dof>x</dof>
      <value lc="1">0.205212085995</value>
    </bc>
    <bc name="expand_torso_y_14" type="prescribed displacement" node_set="torso_column_14">
      <dof>y</dof>
      <value lc="1">0.563815572472</value>
    </bc>
    <bc name="expand_torso_x_15" type="prescribed displacement" node_set="torso_column_15">
      <dof>x</dof>
      <value lc="1">0.155291427062</value>
    </bc>
    <bc name="expand_torso_y_15" type="prescribed displacement" node_set="torso_column_15">
      <dof>y</dof>
      <value lc="1">0.579555495773</value>
    </bc>
    <bc name="expand_torso_x_16" type="prescribed displacement" node_set="torso_column_16">
      <dof>x</dof>
      <value lc="1">0.1041889066</value>
    </bc>
    <bc name="expand_torso_y_16" type="prescribed displacement" node_set="torso_column_16">
      <dof>y</dof>
      <value lc="1">0.590884651807</value>
    </bc>
    <bc name="expand_torso_x_17" type="prescribed displacement" node_set="torso_column_17">
      <dof>x</dof>
      <value lc="1">0.0522934456486</value>
    </bc>
    <bc name="expand_torso_y_17" type="prescribed displacement" node_set="torso_column_17">
      <dof>y</dof>
      <value lc="1">0.597716818855</value>
    </bc>
    <bc name="expand_torso_x_18" type="prescribed displacement" node_set="torso_column_18">
      <dof>x</dof>
      <value lc="1">3.67394039744e-17</value>
    </bc>
    <bc name="expand_torso_y_18" type="prescribed displacement" node_set="torso_column_18">
      <dof>y</dof>
      <value lc="1">0.6</value>
    </bc>
    <bc name="expand_torso_x_19" type="prescribed displacement" node_set="torso_column_19">
      <dof>x</dof>
      <value lc="1">-0.0522934456486</value>
    </bc>
    <bc name="expand_torso_y_19" type="prescribed displacement" node_set="torso_column_19">
      <dof>y</dof>
      <value lc="1">0.597716818855</value>
    </bc>
    <bc name="expand_torso_x_20" type="prescribed displacement" node_set="torso_column_20">
      <dof>x</dof>
      <value lc="1">-0.1041889066</value>
    </bc>
    <bc name="expand_torso_y_20" type="prescribed displacement" node_set="torso_column_20">
      <dof>y</dof>
      <value lc="1">0.590884651807</value>
    </bc>
    <bc name="expand_torso_x_21" type="prescribed displacement" node_set="torso_column_21">
      <dof>x</dof>
      <value lc="1">-0.155291427062</value>
    </bc>
    <bc name="expand_torso_y_21" type="prescribed displacement" node_set="torso_column_21">
      <dof>y</dof>
      <value lc="1">0.579555495773</value>
    </bc>
    <bc name="expand_torso_x_22" type="prescribed displacement" node_set="torso_column_22">
      <dof>x</dof>
      <value lc="1">-0.205212085995</value>
    </bc>
    <bc name="expand_torso_y_22" type="prescribed displacement" node_set="torso_column_22">
      <dof>y</dof>
      <value lc="1">0.563815572472</value>
    </bc>
    <bc name="expand_torso_x_23" type="prescribed displacement" node_set="torso_column_23">
      <dof>x</dof>
      <value lc="1">-0.253570957044</value>
    </bc>
    <bc name="expand_torso_y_23" type="prescribed displacement" node_set="torso_column_23">
      <dof>y</dof>
      <value lc="1">0.543784672222</value>
    </bc>
    <bc name="expand_torso_x_24" type="prescribed displacement" node_set="torso_column_24">
      <dof>x</dof>
      <value lc="1">-0.3</value>
    </bc>
    <bc name="expand_torso_y_24" type="prescribed displacement" node_set="torso_column_24">
      <dof>y</dof>
      <value lc="1">0.519615242271</value>
    </bc>
    <bc name="expand_torso_x_25" type="prescribed displacement" node_set="torso_column_25">
      <dof>x</dof>
      <value lc="1">-0.344145861811</value>
    </bc>
    <bc name="expand_torso_y_25" type="prescribed displacement" node_set="torso_column_25">
      <dof>y</dof>
      <value lc="1">0.491491226573</value>
    </bc>
    <bc name="expand_torso_x_26" type="prescribed displacement" node_set="torso_column_26">
      <dof>x</dof>
      <value lc="1">-0.385672565812</value>
    </bc>
    <bc name="expand_torso_y_26" type="prescribed displacement" node_set="torso_column_26">
      <dof>y</dof>
      <value lc="1">0.459626665871</value>
    </bc>
    <bc name="expand_torso_x_27" type="prescribed displacement" node_set="torso_column_27">
      <dof>x</dof>
      <value lc="1">-0.424264068712</value>
    </bc>
    <bc name="expand_torso_y_27" type="prescribed displacement" node_set="torso_column_27">
      <dof>y</dof>
      <value lc="1">0.424264068712</value>
    </bc>
    <bc name="expand_torso_x_28" type="prescribed displacement" node_set="torso_column_28">
      <dof>x</dof>
      <value lc="1">-0.459626665871</value>
    </bc>
    <bc name="expand_torso_y_28" type="prescribed displacement" node_set="torso_column_28">
      <dof>y</dof>
      <value lc="1">0.385672565812</value>
    </bc>
    <bc name="expand_torso_x_29" type="prescribed displacement" node_set="torso_column_29">
      <dof>x</dof>
      <value lc="1">-0.491491226573</value>
    </bc>
    <bc name="expand_torso_y_29" type="prescribed displacement" node_set="torso_column_29">
      <dof>y</dof>
      <value lc="1">0.344145861811</value>
    </bc>
    <bc name="expand_torso_x_30" type="prescribed displacement" node_set="torso_column_30">
      <dof>x</dof>
      <value lc="1">-0.519615242271</value>
    </bc>
    <bc name="expand_torso_y_30" type="prescribed displacement" node_set="torso_column_30">
      <dof>y</dof>
      <value lc="1">0.3</value>
    </bc>
    <bc name="expand_torso_x_31" type="prescribed displacement" node_set="torso_column_31">
      <dof>x</dof>
      <value lc="1">-0.543784672222</value>
    </bc>
    <bc name="expand_torso_y_31" type="prescribed displacement" node_set="torso_column_31">
      <dof>y</dof>
      <value lc="1">0.253570957044</value>
    </bc>
    <bc name="expand_torso_x_32" type="prescribed displacement" node_set="torso_column_32">
      <dof>x</dof>
      <value lc="1">-0.563815572472</value>
    </bc>
    <bc name="expand_torso_y_32" type="prescribed displacement" node_set="torso_column_32">
      <dof>y</dof>
      <value lc="1">0.205212085995</value>
    </bc>
    <bc name="expand_torso_x_33" type="prescribed displacement" node_set="torso_column_33">
      <dof>x</dof>
      <value lc="1">-0.579555495773</value>
    </bc>
    <bc name="expand_torso_y_33" type="prescribed displacement" node_set="torso_column_33">
      <dof>y</dof>
      <value lc="1">0.155291427062</value>
    </bc>
    <bc name="expand_torso_x_34" type="prescribed displacement" node_set="torso_column_34">
      <dof>x</dof>
      <value lc="1">-0.590884651807</value>
    </bc>
    <bc name="expand_torso_y_34" type="prescribed displacement" node_set="torso_column_34">
      <dof>y</dof>
      <value lc="1">0.1041889066</value>
    </bc>
    <bc name="expand_torso_x_35" type="prescribed displacement" node_set="torso_column_35">
      <dof>x</dof>
      <value lc="1">-0.597716818855</value>
    </bc>
    <bc name="expand_torso_y_35" type="prescribed displacement" node_set="torso_column_35">
      <dof>y</dof>
      <value lc="1">0.0522934456486</value>
    </bc>
    <bc name="expand_torso_x_36" type="prescribed displacement" node_set="torso_column_36">
      <dof>x</dof>
      <value lc="1">-0.6</value>
    </bc>
    <bc name="expand_torso_y_36" type="prescribed displacement" node_set="torso_column_36">
      <dof>y</dof>
      <value lc="1">7.34788079488e-17</value>
    </bc>
    <bc name="expand_torso_x_37" type="prescribed displacement" node_set="torso_column_37">
      <dof>x</dof>
      <value lc="1">-0.597716818855</value>
    </bc>
    <bc name="expand_torso_y_37" type="prescribed displacement" node_set="torso_column_37">
      <dof>y</dof>
      <value lc="1">-0.0522934456486</value>
    </bc>
    <bc name="expand_torso_x_38" type="prescribed displacement" node_set="torso_column_38">
      <dof>x</dof>
      <value lc="1">-0.590884651807</value>
    </bc>
    <bc name="expand_torso_y_38" type="prescribed displacement" node_set="torso_column_38">
      <dof>y</dof>
      <value lc="1">-0.1041889066</value>
    </bc>
    <bc name="expand_torso_x_39" type="prescribed displacement" node_set="torso_column_39">
      <dof>x</dof>
      <value lc="1">-0.579555495773</value>
    </bc>
    <bc name="expand_torso_y_39" type="prescribed displacement" node_set="torso_column_39">
      <dof>y</dof>
      <value lc="1">-0.155291427062</value>
    </bc>
    <bc name="expand_torso_x_40" type="prescribed displacement" node_set="torso_column_40">
      <dof>x</dof>
      <value lc="1">-0.563815572472</value>
    </bc>
    <bc name="expand_torso_y_40" type="prescribed displacement" node_set="torso_column_40">
      <dof>y</dof>
      <value lc="1">-0.205212085995</value>
    </bc>
    <bc name="expand_torso_x_41" type="prescribed displacement" node_set="torso_column_41">
      <dof>x</dof>
      <value lc="1">-0.543784672222</value>
    </bc>
    <bc name="expand_torso_y_41" type="prescribed displacement" node_set="torso_column_41">
      <dof>y</dof>
      <value lc="1">-0.253570957044</value>
    </bc>
    <bc name="expand_torso_x_42" type="prescribed displacement" node_set="torso_column_42">
      <dof>x</dof>
      <value lc="1">-0.519615242271</value>
    </bc>
    <bc name="expand_torso_y_42" type="prescribed displacement" node_set="torso_column_42">
      <dof>y</dof>
      <value lc="1">-0.3</value>
    </bc>
    <bc name="expand_torso_x_43" type="prescribed displacement" node_set="torso_column_43">
      <dof>x</dof>
      <value lc="1">-0.491491226573</value>
    </bc>
    <bc name="expand_torso_y_43" type="prescribed displacement" node_set="torso_column_43">
      <dof>y</dof>
      <value lc="1">-0.344145861811</value>
    </bc>
    <bc name="expand_torso_x_44" type="prescribed displacement" node_set="torso_column_44">
      <dof>x</dof>
      <value lc="1">-0.459626665871</value>
    </bc>
    <bc name="expand_torso_y_44" type="prescribed displacement" node_set="torso_column_44">
      <dof>y</dof>
      <value lc="1">-0.385672565812</value>
    </bc>
    <bc name="expand_torso_x_45" type="prescribed displacement" node_set="torso_column_45">
      <dof>x</dof>
      <value lc="1">-0.424264068712</value>
    </bc>
    <bc name="expand_torso_y_45" type="prescribed displacement" node_set="torso_column_45">
      <dof>y</dof>
      <value lc="1">-0.424264068712</value>
    </bc>
    <bc name="expand_torso_x_46" type="prescribed displacement" node_set="torso_column_46">
      <dof>x</dof>
      <value lc="1">-0.385672565812</value>
    </bc>
    <bc name="expand_torso_y_46" type="prescribed displacement" node_set="torso_column_46">
      <dof>y</dof>
      <value lc="1">-0.459626665871</value>
    </bc>
    <bc name="expand_torso_x_47" type="prescribed displacement" node_set="torso_column_47">
      <dof>x</dof>
      <value lc="1">-0.344145861811</value>
    </bc>
    <bc name="expand_torso_y_47" type="prescribed displacement" node_set="torso_column_47">
      <dof>y</dof>
      <value lc="1">-0.491491226573</value>
    </bc>
    <bc name="expand_torso_x_48" type="prescribed displacement" node_set="torso_column_48">
      <dof>x</dof>
      <value lc="1">-0.3</value>
    </bc>
    <bc name="expand_torso_y_48" type="prescribed displacement" node_set="torso_column_48">
      <dof>y</dof>
      <value lc="1">-0.519615242271</value>
    </bc>
    <bc name="expand_torso_x_49" type="prescribed displacement" node_set="torso_column_49">
      <dof>x</dof>
      <value lc="1">-0.253570957044</value>
    </bc>
    <bc name="expand_torso_y_49" type="prescribed displacement" node_set="torso_column_49">
      <dof>y</dof>
      <value lc="1">-0.543784672222</value>
    </bc>
    <bc name="expand_torso_x_50" type="prescribed displacement" node_set="torso_column_50">
      <dof>x</dof>
      <value lc="1">-0.205212085995</value>
    </bc>
    <bc name="expand_torso_y_50" type="prescribed displacement" node_set="torso_column_50">
      <dof>y</dof>
      <value lc="1">-0.563815572472</value>
    </bc>
    <bc name="expand_torso_x_51" type="prescribed displacement" node_set="torso_column_51">
      <dof>x</dof>
      <value lc="1">-0.155291427062</value>
    </bc>
    <bc name="expand_torso_y_51" type="prescribed displacement" node_set="torso_column_51">
      <dof>y</dof>
      <value lc="1">-0.579555495773</value>
    </bc>
    <bc name="expand_torso_x_52" type="prescribed displacement" node_set="torso_column_52">
      <dof>x</dof>
      <value lc="1">-0.1041889066</value>
    </bc>
    <bc name="expand_torso_y_52" type="prescribed displacement" node_set="torso_column_52">
      <dof>y</dof>
      <value lc="1">-0.590884651807</value>
    </bc>
    <bc name="expand_torso_x_53" type="prescribed displacement" node_set="torso_column_53">
      <dof>x</dof>
      <value lc="1">-0.0522934456486</value>
    </bc>
    <bc name="expand_torso_y_53" type="prescribed displacement" node_set="torso_column_53">
      <dof>y</dof>
      <value lc="1">-0.597716818855</value>
    </bc>
    <bc name="expand_torso_x_54" type="prescribed displacement" node_set="torso_column_54">
      <dof>x</dof>
      <value lc="1">-1.10218211923e-16</value>
    </bc>
    <bc name="expand_torso_y_54" type="prescribed displacement" node_set="torso_column_54">
      <dof>y</dof>
      <value lc="1">-0.6</value>
    </bc>
    <bc name="expand_torso_x_55" type="prescribed displacement" node_set="torso_column_55">
      <dof>x</dof>
      <value lc="1">0.0522934456486</value>
    </bc>
    <bc name="expand_torso_y_55" type="prescribed displacement" node_set="torso_column_55">
      <dof>y</dof>
      <value lc="1">-0.597716818855</value>
    </bc>
    <bc name="expand_torso_x_56" type="prescribed displacement" node_set="torso_column_56">
      <dof>x</dof>
      <value lc="1">0.1041889066</value>
    </bc>
    <bc name="expand_torso_y_56" type="prescribed displacement" node_set="torso_column_56">
      <dof>y</dof>
      <value lc="1">-0.590884651807</value>
    </bc>
    <bc name="expand_torso_x_57" type="prescribed displacement" node_set="torso_column_57">
      <dof>x</dof>
      <value lc="1">0.155291427062</value>
    </bc>
    <bc name="expand_torso_y_57" type="prescribed displacement" node_set="torso_column_57">
      <dof>y</dof>
      <value lc="1">-0.579555495773</value>
    </bc>
    <bc name="expand_torso_x_58" type="prescribed displacement" node_set="torso_column_58">
      <dof>x</dof>
      <value lc="1">0.205212085995</value>
    </bc>
    <bc name="expand_torso_y_58" type="prescribed displacement" node_set="torso_column_58">
      <dof>y</dof>
      <value lc="1">-0.563815572472</value>
    </bc>
    <bc name="expand_torso_x_59" type="prescribed displacement" node_set="torso_column_59">
      <dof>x</dof>
      <value lc="1">0.253570957044</value>
    </bc>
    <bc name="expand_torso_y_59" type="prescribed displacement" node_set="torso_column_59">
      <dof>y</dof>
      <value lc="1">-0.543784672222</value>
    </bc>
    <bc name="expand_torso_x_60" type="prescribed displacement" node_set="torso_column_60">
      <dof>x</dof>
      <value lc="1">0.3</value>
    </bc>
    <bc name="expand_torso_y_60" type="prescribed displacement" node_set="torso_column_60">
      <dof>y</dof>
      <value lc="1">-0.519615242271</value>
    </bc>
    <bc name="expand_torso_x_61" type="prescribed displacement" node_set="torso_column_61">
      <dof>x</dof>
      <value lc="1">0.344145861811</value>
    </bc>
    <bc name="expand_torso_y_61" type="prescribed displacement" node_set="torso_column_61">
      <dof>y</dof>
      <value lc="1">-0.491491226573</value>
    </bc>
    <bc name="expand_torso_x_62" type="prescribed displacement" node_set="torso_column_62">
      <dof>x</dof>
      <value lc="1">0.385672565812</value>
    </bc>
    <bc name="expand_torso_y_62" type="prescribed displacement" node_set="torso_column_62">
      <dof>y</dof>
      <value lc="1">-0.459626665871</value>
    </bc>
    <bc name="expand_torso_x_63" type="prescribed displacement" node_set="torso_column_63">
      <dof>x</dof>
      <value lc="1">0.424264068712</value>
    </bc>
    <bc name="expand_torso_y_63" type="prescribed displacement" node_set="torso_column_63">
      <dof>y</dof>
      <value lc="1">-0.424264068712</value>
    </bc>
    <bc name="expand_torso_x_64" type="prescribed displacement" node_set="torso_column_64">
      <dof>x</dof>
      <value lc="1">0.459626665871</value>
    </bc>
    <bc name="expand_torso_y_64" type="prescribed displacement" node_set="torso_column_64">
      <dof>y</dof>
      <value lc="1">-0.385672565812</value>
    </bc>
    <bc name="expand_torso_x_65" type="prescribed displacement" node_set="torso_column_65">
      <dof>x</dof>
      <value lc="1">0.491491226573</value>
    </bc>
    <bc name="expand_torso_y_65" type="prescribed displacement" node_set="torso_column_65">
      <dof>y</dof>
      <value lc="1">-0.344145861811</value>
    </bc>
    <bc name="expand_torso_x_66" type="prescribed displacement" node_set="torso_column_66">
      <dof>x</dof>
      <value lc="1">0.519615242271</value>
    </bc>
    <bc name="expand_torso_y_66" type="prescribed displacement" node_set="torso_column_66">
      <dof>y</dof>
      <value lc="1">-0.3</value>
    </bc>
    <bc name="expand_torso_x_67" type="prescribed displacement" node_set="torso_column_67">
      <dof>x</dof>
      <value lc="1">0.543784672222</value>
    </bc>
    <bc name="expand_torso_y_67" type="prescribed displacement" node_set="torso_column_67">
      <dof>y</dof>
      <value lc="1">-0.253570957044</value>
    </bc>
    <bc name="expand_torso_x_68" type="prescribed displacement" node_set="torso_column_68">
      <dof>x</dof>
      <value lc="1">0.563815572472</value>
    </bc>
    <bc name="expand_torso_y_68" type="prescribed displacement" node_set="torso_column_68">
      <dof>y</dof>
      <value lc="1">-0.205212085995</value>
    </bc>
    <bc name="expand_torso_x_69" type="prescribed displacement" node_set="torso_column_69">
      <dof>x</dof>
      <value lc="1">0.579555495773</value>
    </bc>
    <bc name="expand_torso_y_69" type="prescribed displacement" node_set="torso_column_69">
      <dof>y</dof>
      <value lc="1">-0.155291427062</value>
    </bc>
    <bc name="expand_torso_x_70" type="prescribed displacement" node_set="torso_column_70">
      <dof>x</dof>
      <value lc="1">0.590884651807</value>
    </bc>
    <bc name="expand_torso_y_70" type="prescribed displacement" node_set="torso_column_70">
      <dof>y</dof>
      <value lc="1">-0.1041889066</value>
    </bc>
    <bc name="expand_torso_x_71" type="prescribed displacement" node_set="torso_column_71">
      <dof>x</dof>
      <value lc="1">0.597716818855</value>
    </bc>
    <bc name="expand_torso_y_71" type="prescribed displacement" node_set="torso_column_71">
      <dof>y</dof>
      <value lc="1">-0.0522934456486</value>
    </bc>
  </Boundary>
  <LoadData>
    <load_controller id="1" type="loadcurve">
      <interpolate>LINEAR</interpolate>
      <points>
        <pt>0,0</pt>
        <pt>0.5,1</pt>
        <pt>1,1</pt>
      </points>
    </load_controller>
    <load_controller id="2" type="loadcurve">
      <interpolate>LINEAR</interpolate>
      <points>
        <pt>0,0</pt>
        <pt>0.5,0</pt>
        <pt>1,1</pt>
      </points>
    </load_controller>
  </LoadData>
  <Output>
    <plotfile type="febio" file="results/matched_no_contact_0p6_fine72_movement025.xplt">
      <var type="displacement" />
      <var type="stress" />
      <var type="Lagrange strain" />
      <var type="shell thickness" />
    </plotfile>
    <logfile file="results/matched_no_contact_0p6_fine72_movement025.log">
      <node_data data="x;y;z" name="shirt_final_coordinates" node_set="shirt_all_nodes" delim="," />
    </logfile>
  </Output>
</febio_spec>