<?xml version='1.0' encoding='utf-8'?>
<febio_spec version="4.0">
  <Module type="solid" />
  <Control>
    <analysis>STATIC</analysis>
    <time_steps>40</time_steps>
    <step_size>0.025</step_size>
    <plot_level>PLOT_MUST_POINTS</plot_level>
    <solver type="solid">
      <max_refs>35</max_refs>
      <diverge_reform>1</diverge_reform>
      <reform_each_time_step>1</reform_each_time_step>
      <symmetric_stiffness>0</symmetric_stiffness>
      <dtol>0.02</dtol>
      <etol>0.0001</etol>
      <rtol>0.001</rtol>
    </solver>
    <time_stepper>
      <dtmin>1e-05</dtmin>
      <dtmax>0.025</dtmax>
      <max_retries>15</max_retries>
      <opt_iter>10</opt_iter>
    </time_stepper>
  </Control>
  <Material>
    <material id="1" name="textile_provisional" type="neo-Hookean">
      <E>0.8</E>
      <v>0.3</v>
    </material>
    <material id="2" name="torso_fixed" type="neo-Hookean">
      <E>0.8</E>
      <v>0.3</v>
    </material>
  </Material>
  <Mesh>
    <Nodes name="shirt_nodes">
      <node id="1">187.9,0,0</node>
      <node id="2">186.718524,18.4629421,0</node>
      <node id="3">183.188955,36.693702,0</node>
      <node id="4">177.355678,54.4630173,0</node>
      <node id="5">169.29205,71.5474286,0</node>
      <node id="6">159.099477,87.7320894,0</node>
      <node id="7">146.906136,102.813468,0</node>
      <node id="8">132.865364,116.601908,0</node>
      <node id="9">117.153734,128.924011,0</node>
      <node id="10">99.9688272,139.62482,0</node>
      <node id="11">81.5267546,148.569766,0</node>
      <node id="12">62.0594357,155.646361,0</node>
      <node id="13">41.8116835,160.765613,0</node>
      <node id="14">21.0381251,163.863143,0</node>
      <node id="15">1.15055567e-14,164.9,0</node>
      <node id="16">-21.0381251,163.863143,0</node>
      <node id="17">-41.8116835,160.765613,0</node>
      <node id="18">-62.0594357,155.646361,0</node>
      <node id="19">-81.5267546,148.569766,0</node>
      <node id="20">-99.9688272,139.62482,0</node>
<!-- ... 1324 like lines cut -->
    </Nodes>
    <Nodes name="torso_nodes">
      <node id="1345">187.4,0,-50</node>
      <node id="1346">186.221668,18.4069599,-50</node>
      <node id="1347">182.701491,36.5824415,-50</node>
      <node id="1348">176.883736,54.2978778,-50</node>
      <node id="1349">168.841566,71.3304867,-50</node>
      <node id="1350">158.676115,87.4660734,-50</node>
      <node id="1351">146.51522,102.501723,-50</node>
      <node id="1352">132.511811,116.248355,-50</node>
      <node id="1353">116.841989,128.533096,-50</node>
      <node id="1354">99.7028111,139.201458,-50</node>
      <node id="1355">81.3098127,148.119282,-50</node>
      <node id="1356">61.8942962,155.17442,-50</node>
      <node id="1357">41.700423,160.278149,-50</node>
      <node id="1358">20.9821428,163.366287,-50</node>
      <node id="1359">1.14749405e-14,164.4,-50</node>
      <node id="1360">-20.9821428,163.366287,-50</node>
      <node id="1361">-41.700423,160.278149,-50</node>
      <node id="1362">-61.8942962,155.17442,-50</node>
      <node id="1363">-81.3098127,148.119282,-50</node>
      <node id="1364">-99.7028111,139.201458,-50</node>
<!-- ... 1324 like lines cut -->
    </Nodes>
    <Elements type="quad4" name="shirt_back">
      <elem id="1">1,2,58,57</elem>
      <elem id="2">2,3,59,58</elem>
      <elem id="3">3,4,60,59</elem>
      <elem id="4">4,5,61,60</elem>
      <elem id="5">5,6,62,61</elem>
      <elem id="6">6,7,63,62</elem>
      <elem id="7">7,8,64,63</elem>
      <elem id="8">8,9,65,64</elem>
      <elem id="9">9,10,66,65</elem>
      <elem id="10">10,11,67,66</elem>
      <elem id="11">11,12,68,67</elem>
      <elem id="12">12,13,69,68</elem>
      <elem id="13">13,14,70,69</elem>
      <elem id="14">14,15,71,70</elem>
      <elem id="15">15,16,72,71</elem>
      <elem id="16">16,17,73,72</elem>
      <elem id="17">17,18,74,73</elem>
      <elem id="18">18,19,75,74</elem>
      <elem id="19">19,20,76,75</elem>
      <elem id="20">20,21,77,76</elem>
<!-- ... 624 like lines cut -->
    </Elements>
    <Elements type="quad4" name="shirt_front">
      <elem id="645">29,30,86,85</elem>
      <elem id="646">30,31,87,86</elem>
      <elem id="647">31,32,88,87</elem>
      <elem id="648">32,33,89,88</elem>
      <elem id="649">33,34,90,89</elem>
      <elem id="650">34,35,91,90</elem>
      <elem id="651">35,36,92,91</elem>
      <elem id="652">36,37,93,92</elem>
      <elem id="653">37,38,94,93</elem>
      <elem id="654">38,39,95,94</elem>
      <elem id="655">39,40,96,95</elem>
      <elem id="656">40,41,97,96</elem>
      <elem id="657">41,42,98,97</elem>
      <elem id="658">42,43,99,98</elem>
      <elem id="659">43,44,100,99</elem>
      <elem id="660">44,45,101,100</elem>
      <elem id="661">45,46,102,101</elem>
      <elem id="662">46,47,103,102</elem>
      <elem id="663">47,48,104,103</elem>
      <elem id="664">48,49,105,104</elem>
<!-- ... 624 like lines cut -->
    </Elements>
    <Elements type="quad4" name="torso_surface_elements">
      <elem id="1289">1345,1346,1402,1401</elem>
      <elem id="1290">1346,1347,1403,1402</elem>
      <elem id="1291">1347,1348,1404,1403</elem>
      <elem id="1292">1348,1349,1405,1404</elem>
      <elem id="1293">1349,1350,1406,1405</elem>
      <elem id="1294">1350,1351,1407,1406</elem>
      <elem id="1295">1351,1352,1408,1407</elem>
      <elem id="1296">1352,1353,1409,1408</elem>
      <elem id="1297">1353,1354,1410,1409</elem>
      <elem id="1298">1354,1355,1411,1410</elem>
      <elem id="1299">1355,1356,1412,1411</elem>
      <elem id="1300">1356,1357,1413,1412</elem>
      <elem id="1301">1357,1358,1414,1413</elem>
      <elem id="1302">1358,1359,1415,1414</elem>
      <elem id="1303">1359,1360,1416,1415</elem>
      <elem id="1304">1360,1361,1417,1416</elem>
      <elem id="1305">1361,1362,1418,1417</elem>
      <elem id="1306">1362,1363,1419,1418</elem>
      <elem id="1307">1363,1364,1420,1419</elem>
      <elem id="1308">1364,1365,1421,1420</elem>
<!-- ... 1268 like lines cut -->
    </Elements>
    <NodeSet name="shirt_top_ring">1289,1290,1291,1292,1293,1294,1295,1296,1297,1298,1299,1300,1301,1302,1303,1304,1305,1306,1307,1308,1309,1310,1311,1312,1313,1314,1315,1316,1317,1318,1319,1320,1321,1322,1323,1324,1325,1326,1327,1328,1329,1330,1331,1332,1333,1334,1335,1336,1337,1338,1339,1340,1341,1342,1343,1344</NodeSet>
    <NodeSet name="shirt_top_node_0">1289</NodeSet>
    <NodeSet name="shirt_top_node_1">1290</NodeSet>
    <NodeSet name="shirt_top_node_2">1291</NodeSet>
    <NodeSet name="shirt_top_node_3">1292</NodeSet>
    <NodeSet name="shirt_top_node_4">1293</NodeSet>
    <NodeSet name="shirt_top_node_5">1294</NodeSet>
    <NodeSet name="shirt_top_node_6">1295</NodeSet>
    <NodeSet name="shirt_top_node_7">1296</NodeSet>
    <NodeSet name="shirt_top_node_8">1297</NodeSet>
    <NodeSet name="shirt_top_node_9">1298</NodeSet>
    <NodeSet name="shirt_top_node_10">1299</NodeSet>
    <NodeSet name="shirt_top_node_11">1300</NodeSet>
    <NodeSet name="shirt_top_node_12">1301</NodeSet>
    <NodeSet name="shirt_top_node_13">1302</NodeSet>
    <NodeSet name="shirt_top_node_14">1303</NodeSet>
    <NodeSet name="shirt_top_node_15">1304</NodeSet>
    <NodeSet name="shirt_top_node_16">1305</NodeSet>
    <NodeSet name="shirt_top_node_17">1306</NodeSet>
    <NodeSet name="shirt_top_node_18">1307</NodeSet>
    <NodeSet name="shirt_top_node_19">1308</NodeSet>
<!-- ... 36 like lines cut -->
    <NodeSet name="shirt_anchor_y">1289</NodeSet>
    <NodeSet name="shirt_anchor_x">1303</NodeSet>
    <NodeSet name="shirt_all_nodes">1,2,3,4,5,6,7,8,9,10,11,12,13,14,15,16,17,18,19,20,21,22,23,24,25,26,27,28,29,30,31,32,33,34,35,36,37,38,39,40,41,42,43,44,45,46,47,48,49,50,51,52,53,54,55,56,57,58,59,60,61,62,63,64,65,66,67,68,69,70,71,72,73,74,75,76,77,78,79,80,81,82,83,84,85,86,87,88,89,90,91,92,93,94,95,96,97,98,99,100,101,102,103,104,105,106,107,108,109,110,111,112,113,114,115,116,117,118,
    <NodeSet name="torso_all_nodes">1345,1346,1347,1348,1349,1350,1351,1352,1353,1354,1355,1356,1357,1358,1359,1360,1361,1362,1363,1364,1365,1366,1367,1368,1369,1370,1371,1372,1373,1374,1375,1376,1377,1378,1379,1380,1381,1382,1383,1384,1385,1386,1387,1388,1389,1390,1391,1392,1393,1394,1395,1396,1397,1398,1399,1400,1401,1402,1403,1404,1405,1406,1407,1408,1409,1410,1411,1412,1413,1414,1415,1416,1417
    <NodeSet name="torso_column_0">1345,1401,1457,1513,1569,1625,1681,1737,1793,1849,1905,1961,2017,2073,2129,2185,2241,2297,2353,2409,2465,2521,2577,2633</NodeSet>
    <NodeSet name="torso_column_1">1346,1402,1458,1514,1570,1626,1682,1738,1794,1850,1906,1962,2018,2074,2130,2186,2242,2298,2354,2410,2466,2522,2578,2634</NodeSet>
    <NodeSet name="torso_column_2">1347,1403,1459,1515,1571,1627,1683,1739,1795,1851,1907,1963,2019,2075,2131,2187,2243,2299,2355,2411,2467,2523,2579,2635</NodeSet>
    <NodeSet name="torso_column_3">1348,1404,1460,1516,1572,1628,1684,1740,1796,1852,1908,1964,2020,2076,2132,2188,2244,2300,2356,2412,2468,2524,2580,2636</NodeSet>
    <NodeSet name="torso_column_4">1349,1405,1461,1517,1573,1629,1685,1741,1797,1853,1909,1965,2021,2077,2133,2189,2245,2301,2357,2413,2469,2525,2581,2637</NodeSet>
    <NodeSet name="torso_column_5">1350,1406,1462,1518,1574,1630,1686,1742,1798,1854,1910,1966,2022,2078,2134,2190,2246,2302,2358,2414,2470,2526,2582,2638</NodeSet>
    <NodeSet name="torso_column_6">1351,1407,1463,1519,1575,1631,1687,1743,1799,1855,1911,1967,2023,2079,2135,2191,2247,2303,2359,2415,2471,2527,2583,2639</NodeSet>
    <NodeSet name="torso_column_7">1352,1408,1464,1520,1576,1632,1688,1744,1800,1856,1912,1968,2024,2080,2136,2192,2248,2304,2360,2416,2472,2528,2584,2640</NodeSet>
    <NodeSet name="torso_column_8">1353,1409,1465,1521,1577,1633,1689,1745,1801,1857,1913,1969,2025,2081,2137,2193,2249,2305,2361,2417,2473,2529,2585,2641</NodeSet>
    <NodeSet name="torso_column_9">1354,1410,1466,1522,1578,1634,1690,1746,1802,1858,1914,1970,2026,2082,2138,2194,2250,2306,2362,2418,2474,2530,2586,2642</NodeSet>
    <NodeSet name="torso_column_10">1355,1411,1467,1523,1579,1635,1691,1747,1803,1859,1915,1971,2027,2083,2139,2195,2251,2307,2363,2419,2475,2531,2587,2643</NodeSet>
    <NodeSet name="torso_column_11">1356,1412,1468,1524,1580,1636,1692,1748,1804,1860,1916,1972,2028,2084,2140,2196,2252,2308,2364,2420,2476,2532,2588,2644</NodeSet>
    <NodeSet name="torso_column_12">1357,1413,1469,1525,1581,1637,1693,1749,1805,1861,1917,1973,2029,2085,2141,2197,2253,2309,2365,2421,2477,2533,2589,2645</NodeSet>
    <NodeSet name="torso_column_13">1358,1414,1470,1526,1582,1638,1694,1750,1806,1862,1918,1974,2030,2086,2142,2198,2254,2310,2366,2422,2478,2534,2590,2646</NodeSet>
    <NodeSet name="torso_column_14">1359,1415,1471,1527,1583,1639,1695,1751,1807,1863,1919,1975,2031,2087,2143,2199,2255,2311,2367,2423,2479,2535,2591,2647</NodeSet>
    <NodeSet name="torso_column_15">1360,1416,1472,1528,1584,1640,1696,1752,1808,1864,1920,1976,2032,2088,2144,2200,2256,2312,2368,2424,2480,2536,2592,2648</NodeSet>
    <NodeSet name="torso_column_16">1361,1417,1473,1529,1585,1641,1697,1753,1809,1865,1921,1977,2033,2089,2145,2201,2257,2313,2369,2425,2481,2537,2593,2649</NodeSet>
    <NodeSet name="torso_column_17">1362,1418,1474,1530,1586,1642,1698,1754,1810,1866,1922,1978,2034,2090,2146,2202,2258,2314,2370,2426,2482,2538,2594,2650</NodeSet>
    <NodeSet name="torso_column_18">1363,1419,1475,1531,1587,1643,1699,1755,1811,1867,1923,1979,2035,2091,2147,2203,2259,2315,2371,2427,2483,2539,2595,2651</NodeSet>
    <NodeSet name="torso_column_19">1364,1420,1476,1532,1588,1644,1700,1756,1812,1868,1924,1980,2036,2092,2148,2204,2260,2316,2372,2428,2484,2540,2596,2652</NodeSet>
<!-- ... 36 like lines cut -->
    <ElementSet name="shirt_all">1,2,3,4,5,6,7,8,9,10,11,12,13,14,15,16,17,18,19,20,21,22,23,24,25,26,27,28,29,30,31,32,33,34,35,36,37,38,39,40,41,42,43,44,45,46,47,48,49,50,51,52,53,54,55,56,57,58,59,60,61,62,63,64,65,66,67,68,69,70,71,72,73,74,75,76,77,78,79,80,81,82,83,84,85,86,87,88,89,90,91,92,93,94,95,96,97,98,99,100,101,102,103,104,105,106,107,108,109,110,111,112,113,114,115,116,117,118,119
    <Surface name="shirt_on_torso_primary">
      <quad4 id="1">1,57,58,2</quad4>
      <quad4 id="2">2,58,59,3</quad4>
      <quad4 id="3">3,59,60,4</quad4>
      <quad4 id="4">4,60,61,5</quad4>
      <quad4 id="5">5,61,62,6</quad4>
      <quad4 id="6">6,62,63,7</quad4>
      <quad4 id="7">7,63,64,8</quad4>
      <quad4 id="8">8,64,65,9</quad4>
      <quad4 id="9">9,65,66,10</quad4>
      <quad4 id="10">10,66,67,11</quad4>
      <quad4 id="11">11,67,68,12</quad4>
      <quad4 id="12">12,68,69,13</quad4>
      <quad4 id="13">13,69,70,14</quad4>
      <quad4 id="14">14,70,71,15</quad4>
      <quad4 id="15">15,71,72,16</quad4>
      <quad4 id="16">16,72,73,17</quad4>
      <quad4 id="17">17,73,74,18</quad4>
      <quad4 id="18">18,74,75,19</quad4>
      <quad4 id="19">19,75,76,20</quad4>
      <quad4 id="20">20,76,77,21</quad4>
<!-- ... 1268 like lines cut -->
    </Surface>
    <Surface name="shirt_on_torso_secondary">
      <quad4 id="1">1345,1346,1402,1401</quad4>
      <quad4 id="2">1346,1347,1403,1402</quad4>
      <quad4 id="3">1347,1348,1404,1403</quad4>
      <quad4 id="4">1348,1349,1405,1404</quad4>
      <quad4 id="5">1349,1350,1406,1405</quad4>
      <quad4 id="6">1350,1351,1407,1406</quad4>
      <quad4 id="7">1351,1352,1408,1407</quad4>
      <quad4 id="8">1352,1353,1409,1408</quad4>
      <quad4 id="9">1353,1354,1410,1409</quad4>
      <quad4 id="10">1354,1355,1411,1410</quad4>
      <quad4 id="11">1355,1356,1412,1411</quad4>
      <quad4 id="12">1356,1357,1413,1412</quad4>
      <quad4 id="13">1357,1358,1414,1413</quad4>
      <quad4 id="14">1358,1359,1415,1414</quad4>
      <quad4 id="15">1359,1360,1416,1415</quad4>
      <quad4 id="16">1360,1361,1417,1416</quad4>
      <quad4 id="17">1361,1362,1418,1417</quad4>
      <quad4 id="18">1362,1363,1419,1418</quad4>
      <quad4 id="19">1363,1364,1420,1419</quad4>
      <quad4 id="20">1364,1365,1421,1420</quad4>
<!-- ... 1268 like lines cut -->
    </Surface>
    <Surface name="shirt_pressure_surface">
      <quad4 id="1">1,2,58,57</quad4>
      <quad4 id="2">2,3,59,58</quad4>
      <quad4 id="3">3,4,60,59</quad4>
      <quad4 id="4">4,5,61,60</quad4>
      <quad4 id="5">5,6,62,61</quad4>
      <quad4 id="6">6,7,63,62</quad4>
      <quad4 id="7">7,8,64,63</quad4>
      <quad4 id="8">8,9,65,64</quad4>
      <quad4 id="9">9,10,66,65</quad4>
      <quad4 id="10">10,11,67,66</quad4>
      <quad4 id="11">11,12,68,67</quad4>
      <quad4 id="12">12,13,69,68</quad4>
      <quad4 id="13">13,14,70,69</quad4>
      <quad4 id="14">14,15,71,70</quad4>
      <quad4 id="15">15,16,72,71</quad4>
      <quad4 id="16">16,17,73,72</quad4>
      <quad4 id="17">17,18,74,73</quad4>
      <quad4 id="18">18,19,75,74</quad4>
      <quad4 id="19">19,20,76,75</quad4>
      <quad4 id="20">20,21,77,76</quad4>
<!-- ... 1268 like lines cut -->
    </Surface>
    <SurfacePair name="shirt_torso_pair">
      <primary>shirt_on_torso_primary</primary>
      <secondary>shirt_on_torso_secondary</secondary>
    </SurfacePair>
  </Mesh>
  <MeshDomains>
    <ShellDomain name="shirt_front" mat="textile_provisional" type="elastic-shell">
      <shell_thickness>1.6</shell_thickness>
    </ShellDomain>
    <ShellDomain name="shirt_back" mat="textile_provisional" type="elastic-shell">
      <shell_thickness>1.6</shell_thickness>
    </ShellDomain>
    <ShellDomain name="torso_surface_elements" mat="torso_fixed" type="elastic-shell">
      <shell_thickness>1.0</shell_thickness>
    </ShellDomain>
  </MeshDomains>
  <Boundary>
    <bc name="both_arms_raise_x_0" type="prescribed displacement" node_set="shirt_top_node_0">
      <dof>x</dof>
      <value lc="2">1.6875</value>
    </bc>
    <bc name="both_arms_raise_z_0" type="prescribed displacement" node_set="shirt_top_node_0">
      <dof>z</dof>
      <value lc="2">9.75</value>
    </bc>
    <bc name="both_arms_raise_x_1" type="prescribed displacement" node_set="shirt_top_node_1">
      <dof>x</dof>
      <value lc="2">1.67688935419</value>
    </bc>
    <bc name="both_arms_raise_z_1" type="prescribed displacement" node_set="shirt_top_node_1">
      <dof>z</dof>
      <value lc="2">9.69499810735</value>
    </bc>
    <bc name="both_arms_raise_x_2" type="prescribed displacement" node_set="shirt_top_node_2">
      <dof>x</dof>
      <value lc="2">1.64519085181</value>
    </bc>
    <bc name="both_arms_raise_z_2" type="prescribed displacement" node_set="shirt_top_node_2">
      <dof>z</dof>
      <value lc="2">9.53275045396</value>
    </bc>
    <bc name="both_arms_raise_x_3" type="prescribed displacement" node_set="shirt_top_node_3">
      <dof>x</dof>
      <value lc="2">1.5928031199</value>
    </bc>
    <bc name="both_arms_raise_z_3" type="prescribed displacement" node_set="shirt_top_node_3">
      <dof>z</dof>
      <value lc="2">9.27139281466</value>
    </bc>
    <bc name="both_arms_raise_x_4" type="prescribed displacement" node_set="shirt_top_node_4">
      <dof>x</dof>
      <value lc="2">1.52038496459</value>
    </bc>
    <bc name="both_arms_raise_z_4" type="prescribed displacement" node_set="shirt_top_node_4">
      <dof>z</dof>
      <value lc="2">8.92403075283</value>
    </bc>
    <bc name="both_arms_raise_x_5" type="prescribed displacement" node_set="shirt_top_node_5">
      <dof>x</dof>
      <value lc="2">1.4288470862</value>
    </bc>
    <bc name="both_arms_raise_z_5" type="prescribed displacement" node_set="shirt_top_node_5">
      <dof>z</dof>
      <value lc="2">8.50808245269</value>
    </bc>
    <bc name="both_arms_raise_x_6" type="prescribed displacement" node_set="shirt_top_node_6">
      <dof>x</dof>
      <value lc="2">1.31934062666</value>
    </bc>
    <bc name="both_arms_raise_z_6" type="prescribed displacement" node_set="shirt_top_node_6">
      <dof>z</dof>
      <value lc="2">8.04440529887</value>
    </bc>
    <bc name="both_arms_raise_x_7" type="prescribed displacement" node_set="shirt_top_node_7">
      <dof>x</dof>
      <value lc="2">1.19324269325</value>
    </bc>
    <bc name="both_arms_raise_z_7" type="prescribed displacement" node_set="shirt_top_node_7">
      <dof>z</dof>
      <value lc="2">7.55625</value>
    </bc>
    <bc name="both_arms_raise_x_8" type="prescribed displacement" node_set="shirt_top_node_8">
      <dof>x</dof>
      <value lc="2">1.05213904064</value>
    </bc>
    <bc name="both_arms_raise_z_8" type="prescribed displacement" node_set="shirt_top_node_8">
      <dof>z</dof>
      <value lc="2">7.06809470113</value>
    </bc>
    <bc name="both_arms_raise_x_9" type="prescribed displacement" node_set="shirt_top_node_9">
      <dof>x</dof>
      <value lc="2">0.89780412912</value>
    </bc>
    <bc name="both_arms_raise_z_9" type="prescribed displacement" node_set="shirt_top_node_9">
      <dof>z</dof>
      <value lc="2">6.60441754731</value>
    </bc>
    <bc name="both_arms_raise_x_10" type="prescribed displacement" node_set="shirt_top_node_10">
      <dof>x</dof>
      <value lc="2">0.732178809761</value>
    </bc>
    <bc name="both_arms_raise_z_10" type="prescribed displacement" node_set="shirt_top_node_10">
      <dof>z</dof>
      <value lc="2">6.18846924717</value>
    </bc>
    <bc name="both_arms_raise_x_11" type="prescribed displacement" node_set="shirt_top_node_11">
      <dof>x</dof>
      <value lc="2">0.557345917049</value>
    </bc>
    <bc name="both_arms_raise_z_11" type="prescribed displacement" node_set="shirt_top_node_11">
      <dof>z</dof>
      <value lc="2">5.84110718534</value>
    </bc>
    <bc name="both_arms_raise_x_12" type="prescribed displacement" node_set="shirt_top_node_12">
      <dof>x</dof>
      <value lc="2">0.375504076051</value>
    </bc>
    <bc name="both_arms_raise_z_12" type="prescribed displacement" node_set="shirt_top_node_12">
      <dof>z</dof>
      <value lc="2">5.57974954604</value>
    </bc>
    <bc name="both_arms_raise_x_13" type="prescribed displacement" node_set="shirt_top_node_13">
      <dof>x</dof>
      <value lc="2">0.188940053424</value>
    </bc>
    <bc name="both_arms_raise_z_13" type="prescribed displacement" node_set="shirt_top_node_13">
      <dof>z</dof>
      <value lc="2">5.41750189265</value>
    </bc>
    <bc name="both_arms_raise_x_14" type="prescribed displacement" node_set="shirt_top_node_14">
      <dof>x</dof>
      <value lc="2">1.03329573678e-16</value>
    </bc>
    <bc name="both_arms_raise_z_14" type="prescribed displacement" node_set="shirt_top_node_14">
      <dof>z</dof>
      <value lc="2">5.3625</value>
    </bc>
    <bc name="both_arms_raise_x_15" type="prescribed displacement" node_set="shirt_top_node_15">
      <dof>x</dof>
      <value lc="2">-0.188940053424</value>
    </bc>
    <bc name="both_arms_raise_z_15" type="prescribed displacement" node_set="shirt_top_node_15">
      <dof>z</dof>
      <value lc="2">5.41750189265</value>
    </bc>
    <bc name="both_arms_raise_x_16" type="prescribed displacement" node_set="shirt_top_node_16">
      <dof>x</dof>
      <value lc="2">-0.375504076051</value>
    </bc>
    <bc name="both_arms_raise_z_16" type="prescribed displacement" node_set="shirt_top_node_16">
      <dof>z</dof>
      <value lc="2">5.57974954604</value>
    </bc>
    <bc name="both_arms_raise_x_17" type="prescribed displacement" node_set="shirt_top_node_17">
      <dof>x</dof>
      <value lc="2">-0.557345917049</value>
    </bc>
    <bc name="both_arms_raise_z_17" type="prescribed displacement" node_set="shirt_top_node_17">
      <dof>z</dof>
      <value lc="2">5.84110718534</value>
    </bc>
    <bc name="both_arms_raise_x_18" type="prescribed displacement" node_set="shirt_top_node_18">
      <dof>x</dof>
      <value lc="2">-0.732178809761</value>
    </bc>
    <bc name="both_arms_raise_z_18" type="prescribed displacement" node_set="shirt_top_node_18">
      <dof>z</dof>
      <value lc="2">6.18846924717</value>
    </bc>
    <bc name="both_arms_raise_x_19" type="prescribed displacement" node_set="shirt_top_node_19">
      <dof>x</dof>
      <value lc="2">-0.89780412912</value>
    </bc>
    <bc name="both_arms_raise_z_19" type="prescribed displacement" node_set="shirt_top_node_19">
      <dof>z</dof>
      <value lc="2">6.60441754731</value>
    </bc>
    <bc name="both_arms_raise_x_20" type="prescribed displacement" node_set="shirt_top_node_20">
      <dof>x</dof>
      <value lc="2">-1.05213904064</value>
    </bc>
    <bc name="both_arms_raise_z_20" type="prescribed displacement" node_set="shirt_top_node_20">
      <dof>z</dof>
      <value lc="2">7.06809470113</value>
    </bc>
    <bc name="both_arms_raise_x_21" type="prescribed displacement" node_set="shirt_top_node_21">
      <dof>x</dof>
      <value lc="2">-1.19324269325</value>
    </bc>
    <bc name="both_arms_raise_z_21" type="prescribed displacement" node_set="shirt_top_node_21">
      <dof>z</dof>
      <value lc="2">7.55625</value>
    </bc>
    <bc name="both_arms_raise_x_22" type="prescribed displacement" node_set="shirt_top_node_22">
      <dof>x</dof>
      <value lc="2">-1.31934062666</value>
    </bc>
    <bc name="both_arms_raise_z_22" type="prescribed displacement" node_set="shirt_top_node_22">
      <dof>z</dof>
      <value lc="2">8.04440529887</value>
    </bc>
    <bc name="both_arms_raise_x_23" type="prescribed displacement" node_set="shirt_top_node_23">
      <dof>x</dof>
      <value lc="2">-1.4288470862</value>
    </bc>
    <bc name="both_arms_raise_z_23" type="prescribed displacement" node_set="shirt_top_node_23">
      <dof>z</dof>
      <value lc="2">8.50808245269</value>
    </bc>
    <bc name="both_arms_raise_x_24" type="prescribed displacement" node_set="shirt_top_node_24">
      <dof>x</dof>
      <value lc="2">-1.52038496459</value>
    </bc>
    <bc name="both_arms_raise_z_24" type="prescribed displacement" node_set="shirt_top_node_24">
      <dof>z</dof>
      <value lc="2">8.92403075283</value>
    </bc>
    <bc name="both_arms_raise_x_25" type="prescribed displacement" node_set="shirt_top_node_25">
      <dof>x</dof>
      <value lc="2">-1.5928031199</value>
    </bc>
    <bc name="both_arms_raise_z_25" type="prescribed displacement" node_set="shirt_top_node_25">
      <dof>z</dof>
      <value lc="2">9.27139281466</value>
    </bc>
    <bc name="both_arms_raise_x_26" type="prescribed displacement" node_set="shirt_top_node_26">
      <dof>x</dof>
      <value lc="2">-1.64519085181</value>
    </bc>
    <bc name="both_arms_raise_z_26" type="prescribed displacement" node_set="shirt_top_node_26">
      <dof>z</dof>
      <value lc="2">9.53275045396</value>
    </bc>
    <bc name="both_arms_raise_x_27" type="prescribed displacement" node_set="shirt_top_node_27">
      <dof>x</dof>
      <value lc="2">-1.67688935419</value>
    </bc>
    <bc name="both_arms_raise_z_27" type="prescribed displacement" node_set="shirt_top_node_27">
      <dof>z</dof>
      <value lc="2">9.69499810735</value>
    </bc>
    <bc name="both_arms_raise_x_28" type="prescribed displacement" node_set="shirt_top_node_28">
      <dof>x</dof>
      <value lc="2">-1.6875</value>
    </bc>
    <bc name="both_arms_raise_z_28" type="prescribed displacement" node_set="shirt_top_node_28">
      <dof>z</dof>
      <value lc="2">9.75</value>
    </bc>
    <bc name="both_arms_raise_x_29" type="prescribed displacement" node_set="shirt_top_node_29">
      <dof>x</dof>
      <value lc="2">-1.67688935419</value>
    </bc>
    <bc name="both_arms_raise_z_29" type="prescribed displacement" node_set="shirt_top_node_29">
      <dof>z</dof>
      <value lc="2">9.69499810735</value>
    </bc>
    <bc name="both_arms_raise_x_30" type="prescribed displacement" node_set="shirt_top_node_30">
      <dof>x</dof>
      <value lc="2">-1.64519085181</value>
    </bc>
    <bc name="both_arms_raise_z_30" type="prescribed displacement" node_set="shirt_top_node_30">
      <dof>z</dof>
      <value lc="2">9.53275045396</value>
    </bc>
    <bc name="both_arms_raise_x_31" type="prescribed displacement" node_set="shirt_top_node_31">
      <dof>x</dof>
      <value lc="2">-1.5928031199</value>
    </bc>
    <bc name="both_arms_raise_z_31" type="prescribed displacement" node_set="shirt_top_node_31">
      <dof>z</dof>
      <value lc="2">9.27139281466</value>
    </bc>
    <bc name="both_arms_raise_x_32" type="prescribed displacement" node_set="shirt_top_node_32">
      <dof>x</dof>
      <value lc="2">-1.52038496459</value>
    </bc>
    <bc name="both_arms_raise_z_32" type="prescribed displacement" node_set="shirt_top_node_32">
      <dof>z</dof>
      <value lc="2">8.92403075283</value>
    </bc>
    <bc name="both_arms_raise_x_33" type="prescribed displacement" node_set="shirt_top_node_33">
      <dof>x</dof>
      <value lc="2">-1.4288470862</value>
    </bc>
    <bc name="both_arms_raise_z_33" type="prescribed displacement" node_set="shirt_top_node_33">
      <dof>z</dof>
      <value lc="2">8.50808245269</value>
    </bc>
    <bc name="both_arms_raise_x_34" type="prescribed displacement" node_set="shirt_top_node_34">
      <dof>x</dof>
      <value lc="2">-1.31934062666</value>
    </bc>
    <bc name="both_arms_raise_z_34" type="prescribed displacement" node_set="shirt_top_node_34">
      <dof>z</dof>
      <value lc="2">8.04440529887</value>
    </bc>
    <bc name="both_arms_raise_x_35" type="prescribed displacement" node_set="shirt_top_node_35">
      <dof>x</dof>
      <value lc="2">-1.19324269325</value>
    </bc>
    <bc name="both_arms_raise_z_35" type="prescribed displacement" node_set="shirt_top_node_35">
      <dof>z</dof>
      <value lc="2">7.55625</value>
    </bc>
    <bc name="both_arms_raise_x_36" type="prescribed displacement" node_set="shirt_top_node_36">
      <dof>x</dof>
      <value lc="2">-1.05213904064</value>
    </bc>
    <bc name="both_arms_raise_z_36" type="prescribed displacement" node_set="shirt_top_node_36">
      <dof>z</dof>
      <value lc="2">7.06809470113</value>
    </bc>
    <bc name="both_arms_raise_x_37" type="prescribed displacement" node_set="shirt_top_node_37">
      <dof>x</dof>
      <value lc="2">-0.89780412912</value>
    </bc>
    <bc name="both_arms_raise_z_37" type="prescribed displacement" node_set="shirt_top_node_37">
      <dof>z</dof>
      <value lc="2">6.60441754731</value>
    </bc>
    <bc name="both_arms_raise_x_38" type="prescribed displacement" node_set="shirt_top_node_38">
      <dof>x</dof>
      <value lc="2">-0.732178809761</value>
    </bc>
    <bc name="both_arms_raise_z_38" type="prescribed displacement" node_set="shirt_top_node_38">
      <dof>z</dof>
      <value lc="2">6.18846924717</value>
    </bc>
    <bc name="both_arms_raise_x_39" type="prescribed displacement" node_set="shirt_top_node_39">
      <dof>x</dof>
      <value lc="2">-0.557345917049</value>
    </bc>
    <bc name="both_arms_raise_z_39" type="prescribed displacement" node_set="shirt_top_node_39">
      <dof>z</dof>
      <value lc="2">5.84110718534</value>
    </bc>
    <bc name="both_arms_raise_x_40" type="prescribed displacement" node_set="shirt_top_node_40">
      <dof>x</dof>
      <value lc="2">-0.375504076051</value>
    </bc>
    <bc name="both_arms_raise_z_40" type="prescribed displacement" node_set="shirt_top_node_40">
      <dof>z</dof>
      <value lc="2">5.57974954604</value>
    </bc>
    <bc name="both_arms_raise_x_41" type="prescribed displacement" node_set="shirt_top_node_41">
      <dof>x</dof>
      <value lc="2">-0.188940053424</value>
    </bc>
    <bc name="both_arms_raise_z_41" type="prescribed displacement" node_set="shirt_top_node_41">
      <dof>z</dof>
      <value lc="2">5.41750189265</value>
    </bc>
    <bc name="both_arms_raise_x_42" type="prescribed displacement" node_set="shirt_top_node_42">
      <dof>x</dof>
      <value lc="2">-3.09988721034e-16</value>
    </bc>
    <bc name="both_arms_raise_z_42" type="prescribed displacement" node_set="shirt_top_node_42">
      <dof>z</dof>
      <value lc="2">5.3625</value>
    </bc>
    <bc name="both_arms_raise_x_43" type="prescribed displacement" node_set="shirt_top_node_43">
      <dof>x</dof>
      <value lc="2">0.188940053424</value>
    </bc>
    <bc name="both_arms_raise_z_43" type="prescribed displacement" node_set="shirt_top_node_43">
      <dof>z</dof>
      <value lc="2">5.41750189265</value>
    </bc>
    <bc name="both_arms_raise_x_44" type="prescribed displacement" node_set="shirt_top_node_44">
      <dof>x</dof>
      <value lc="2">0.375504076051</value>
    </bc>
    <bc name="both_arms_raise_z_44" type="prescribed displacement" node_set="shirt_top_node_44">
      <dof>z</dof>
      <value lc="2">5.57974954604</value>
    </bc>
    <bc name="both_arms_raise_x_45" type="prescribed displacement" node_set="shirt_top_node_45">
      <dof>x</dof>
      <value lc="2">0.557345917049</value>
    </bc>
    <bc name="both_arms_raise_z_45" type="prescribed displacement" node_set="shirt_top_node_45">
      <dof>z</dof>
      <value lc="2">5.84110718534</value>
    </bc>
    <bc name="both_arms_raise_x_46" type="prescribed displacement" node_set="shirt_top_node_46">
      <dof>x</dof>
      <value lc="2">0.732178809761</value>
    </bc>
    <bc name="both_arms_raise_z_46" type="prescribed displacement" node_set="shirt_top_node_46">
      <dof>z</dof>
      <value lc="2">6.18846924717</value>
    </bc>
    <bc name="both_arms_raise_x_47" type="prescribed displacement" node_set="shirt_top_node_47">
      <dof>x</dof>
      <value lc="2">0.89780412912</value>
    </bc>
    <bc name="both_arms_raise_z_47" type="prescribed displacement" node_set="shirt_top_node_47">
      <dof>z</dof>
      <value lc="2">6.60441754731</value>
    </bc>
    <bc name="both_arms_raise_x_48" type="prescribed displacement" node_set="shirt_top_node_48">
      <dof>x</dof>
      <value lc="2">1.05213904064</value>
    </bc>
    <bc name="both_arms_raise_z_48" type="prescribed displacement" node_set="shirt_top_node_48">
      <dof>z</dof>
      <value lc="2">7.06809470113</value>
    </bc>
    <bc name="both_arms_raise_x_49" type="prescribed displacement" node_set="shirt_top_node_49">
      <dof>x</dof>
      <value lc="2">1.19324269325</value>
    </bc>
    <bc name="both_arms_raise_z_49" type="prescribed displacement" node_set="shirt_top_node_49">
      <dof>z</dof>
      <value lc="2">7.55625</value>
    </bc>
    <bc name="both_arms_raise_x_50" type="prescribed displacement" node_set="shirt_top_node_50">
      <dof>x</dof>
      <value lc="2">1.31934062666</value>
    </bc>
    <bc name="both_arms_raise_z_50" type="prescribed displacement" node_set="shirt_top_node_50">
      <dof>z</dof>
      <value lc="2">8.04440529887</value>
    </bc>
    <bc name="both_arms_raise_x_51" type="prescribed displacement" node_set="shirt_top_node_51">
      <dof>x</dof>
      <value lc="2">1.4288470862</value>
    </bc>
    <bc name="both_arms_raise_z_51" type="prescribed displacement" node_set="shirt_top_node_51">
      <dof>z</dof>
      <value lc="2">8.50808245269</value>
    </bc>
    <bc name="both_arms_raise_x_52" type="prescribed displacement" node_set="shirt_top_node_52">
      <dof>x</dof>
      <value lc="2">1.52038496459</value>
    </bc>
    <bc name="both_arms_raise_z_52" type="prescribed displacement" node_set="shirt_top_node_52">
      <dof>z</dof>
      <value lc="2">8.92403075283</value>
    </bc>
    <bc name="both_arms_raise_x_53" type="prescribed displacement" node_set="shirt_top_node_53">
      <dof>x</dof>
      <value lc="2">1.5928031199</value>
    </bc>
    <bc name="both_arms_raise_z_53" type="prescribed displacement" node_set="shirt_top_node_53">
      <dof>z</dof>
      <value lc="2">9.27139281466</value>
    </bc>
    <bc name="both_arms_raise_x_54" type="prescribed displacement" node_set="shirt_top_node_54">
      <dof>x</dof>
      <value lc="2">1.64519085181</value>
    </bc>
    <bc name="both_arms_raise_z_54" type="prescribed displacement" node_set="shirt_top_node_54">
      <dof>z</dof>
      <value lc="2">9.53275045396</value>
    </bc>
    <bc name="both_arms_raise_x_55" type="prescribed displacement" node_set="shirt_top_node_55">
      <dof>x</dof>
      <value lc="2">1.67688935419</value>
    </bc>
    <bc name="both_arms_raise_z_55" type="prescribed displacement" node_set="shirt_top_node_55">
      <dof>z</dof>
      <value lc="2">9.69499810735</value>
    </bc>
    <bc name="remove_y_translation" type="zero displacement" node_set="shirt_anchor_y">
      <y_dof>1</y_dof>
    </bc>
    <bc name="remove_x_translation" type="zero displacement" node_set="shirt_anchor_x">
      <x_dof>1</x_dof>
    </bc>
    <bc name="fixed_torso_axial" type="zero displacement" node_set="torso_all_nodes">
      <z_dof>1</z_dof>
    </bc>
    <bc name="expand_torso_x_0" type="prescribed displacement" node_set="torso_column_0">
      <dof>x</dof>
      <value lc="1">0.6</value>
    </bc>
    <bc name="expand_torso_y_0" type="prescribed displacement" node_set="torso_column_0">
      <dof>y</dof>
      <value lc="1">0</value>
    </bc>
    <bc name="expand_torso_x_1" type="prescribed displacement" node_set="torso_column_1">
      <dof>x</dof>
      <value lc="1">0.596227325936</value>
    </bc>
    <bc name="expand_torso_y_1" type="prescribed displacement" node_set="torso_column_1">
      <dof>y</dof>
      <value lc="1">0.067178685662</value>
    </bc>
    <bc name="expand_torso_x_2" type="prescribed displacement" node_set="torso_column_2">
      <dof>x</dof>
      <value lc="1">0.584956747309</value>
    </bc>
    <bc name="expand_torso_y_2" type="prescribed displacement" node_set="torso_column_2">
      <dof>y</dof>
      <value lc="1">0.133512560374</value>
    </bc>
    <bc name="expand_torso_x_3" type="prescribed displacement" node_set="torso_column_3">
      <dof>x</dof>
      <value lc="1">0.566329998185</value>
    </bc>
    <bc name="expand_torso_y_3" type="prescribed displacement" node_set="torso_column_3">
      <dof>y</dof>
      <value lc="1">0.198167437173</value>
    </bc>
    <bc name="expand_torso_x_4" type="prescribed displacement" node_set="torso_column_4">
      <dof>x</dof>
      <value lc="1">0.540581320741</value>
    </bc>
    <bc name="expand_torso_y_4" type="prescribed displacement" node_set="torso_column_4">
      <dof>y</dof>
      <value lc="1">0.260330243471</value>
    </bc>
    <bc name="expand_torso_x_5" type="prescribed displacement" node_set="torso_column_5">
      <dof>x</dof>
      <value lc="1">0.508034519537</value>
    </bc>
    <bc name="expand_torso_y_5" type="prescribed displacement" node_set="torso_column_5">
      <dof>y</dof>
      <value lc="1">0.319219245909</value>
    </bc>
    <bc name="expand_torso_x_6" type="prescribed displacement" node_set="torso_column_6">
      <dof>x</dof>
      <value lc="1">0.469098889481</value>
    </bc>
    <bc name="expand_torso_y_6" type="prescribed displacement" node_set="torso_column_6">
      <dof>y</dof>
      <value lc="1">0.374093881115</value>
    </bc>
    <bc name="expand_torso_x_7" type="prescribed displacement" node_set="torso_column_7">
      <dof>x</dof>
      <value lc="1">0.424264068712</value>
    </bc>
    <bc name="expand_torso_y_7" type="prescribed displacement" node_set="torso_column_7">
      <dof>y</dof>
      <value lc="1">0.424264068712</value>
    </bc>
    <bc name="expand_torso_x_8" type="prescribed displacement" node_set="torso_column_8">
      <dof>x</dof>
      <value lc="1">0.374093881115</value>
    </bc>
    <bc name="expand_torso_y_8" type="prescribed displacement" node_set="torso_column_8">
      <dof>y</dof>
      <value lc="1">0.469098889481</value>
    </bc>
    <bc name="expand_torso_x_9" type="prescribed displacement" node_set="torso_column_9">
      <dof>x</dof>
      <value lc="1">0.319219245909</value>
    </bc>
    <bc name="expand_torso_y_9" type="prescribed displacement" node_set="torso_column_9">
      <dof>y</dof>
      <value lc="1">0.508034519537</value>
    </bc>
    <bc name="expand_torso_x_10" type="prescribed displacement" node_set="torso_column_10">
      <dof>x</dof>
      <value lc="1">0.260330243471</value>
    </bc>
    <bc name="expand_torso_y_10" type="prescribed displacement" node_set="torso_column_10">
      <dof>y</dof>
      <value lc="1">0.540581320741</value>
    </bc>
    <bc name="expand_torso_x_11" type="prescribed displacement" node_set="torso_column_11">
      <dof>x</dof>
      <value lc="1">0.198167437173</value>
    </bc>
    <bc name="expand_torso_y_11" type="prescribed displacement" node_set="torso_column_11">
      <dof>y</dof>
      <value lc="1">0.566329998185</value>
    </bc>
    <bc name="expand_torso_x_12" type="prescribed displacement" node_set="torso_column_12">
      <dof>x</dof>
      <value lc="1">0.133512560374</value>
    </bc>
    <bc name="expand_torso_y_12" type="prescribed displacement" node_set="torso_column_12">
      <dof>y</dof>
      <value lc="1">0.584956747309</value>
    </bc>
    <bc name="expand_torso_x_13" type="prescribed displacement" node_set="torso_column_13">
      <dof>x</dof>
      <value lc="1">0.067178685662</value>
    </bc>
    <bc name="expand_torso_y_13" type="prescribed displacement" node_set="torso_column_13">
      <dof>y</dof>
      <value lc="1">0.596227325936</value>
    </bc>
    <bc name="expand_torso_x_14" type="prescribed displacement" node_set="torso_column_14">
      <dof>x</dof>
      <value lc="1">3.67394039744e-17</value>
    </bc>
    <bc name="expand_torso_y_14" type="prescribed displacement" node_set="torso_column_14">
      <dof>y</dof>
      <value lc="1">0.6</value>
    </bc>
    <bc name="expand_torso_x_15" type="prescribed displacement" node_set="torso_column_15">
      <dof>x</dof>
      <value lc="1">-0.067178685662</value>
    </bc>
    <bc name="expand_torso_y_15" type="prescribed displacement" node_set="torso_column_15">
      <dof>y</dof>
      <value lc="1">0.596227325936</value>
    </bc>
    <bc name="expand_torso_x_16" type="prescribed displacement" node_set="torso_column_16">
      <dof>x</dof>
      <value lc="1">-0.133512560374</value>
    </bc>
    <bc name="expand_torso_y_16" type="prescribed displacement" node_set="torso_column_16">
      <dof>y</dof>
      <value lc="1">0.584956747309</value>
    </bc>
    <bc name="expand_torso_x_17" type="prescribed displacement" node_set="torso_column_17">
      <dof>x</dof>
      <value lc="1">-0.198167437173</value>
    </bc>
    <bc name="expand_torso_y_17" type="prescribed displacement" node_set="torso_column_17">
      <dof>y</dof>
      <value lc="1">0.566329998185</value>
    </bc>
    <bc name="expand_torso_x_18" type="prescribed displacement" node_set="torso_column_18">
      <dof>x</dof>
      <value lc="1">-0.260330243471</value>
    </bc>
    <bc name="expand_torso_y_18" type="prescribed displacement" node_set="torso_column_18">
      <dof>y</dof>
      <value lc="1">0.540581320741</value>
    </bc>
    <bc name="expand_torso_x_19" type="prescribed displacement" node_set="torso_column_19">
      <dof>x</dof>
      <value lc="1">-0.319219245909</value>
    </bc>
    <bc name="expand_torso_y_19" type="prescribed displacement" node_set="torso_column_19">
      <dof>y</dof>
      <value lc="1">0.508034519537</value>
    </bc>
    <bc name="expand_torso_x_20" type="prescribed displacement" node_set="torso_column_20">
      <dof>x</dof>
      <value lc="1">-0.374093881115</value>
    </bc>
    <bc name="expand_torso_y_20" type="prescribed displacement" node_set="torso_column_20">
      <dof>y</dof>
      <value lc="1">0.469098889481</value>
    </bc>
    <bc name="expand_torso_x_21" type="prescribed displacement" node_set="torso_column_21">
      <dof>x</dof>
      <value lc="1">-0.424264068712</value>
    </bc>
    <bc name="expand_torso_y_21" type="prescribed displacement" node_set="torso_column_21">
      <dof>y</dof>
      <value lc="1">0.424264068712</value>
    </bc>
    <bc name="expand_torso_x_22" type="prescribed displacement" node_set="torso_column_22">
      <dof>x</dof>
      <value lc="1">-0.469098889481</value>
    </bc>
    <bc name="expand_torso_y_22" type="prescribed displacement" node_set="torso_column_22">
      <dof>y</dof>
      <value lc="1">0.374093881115</value>
    </bc>
    <bc name="expand_torso_x_23" type="prescribed displacement" node_set="torso_column_23">
      <dof>x</dof>
      <value lc="1">-0.508034519537</value>
    </bc>
    <bc name="expand_torso_y_23" type="prescribed displacement" node_set="torso_column_23">
      <dof>y</dof>
      <value lc="1">0.319219245909</value>
    </bc>
    <bc name="expand_torso_x_24" type="prescribed displacement" node_set="torso_column_24">
      <dof>x</dof>
      <value lc="1">-0.540581320741</value>
    </bc>
    <bc name="expand_torso_y_24" type="prescribed displacement" node_set="torso_column_24">
      <dof>y</dof>
      <value lc="1">0.260330243471</value>
    </bc>
    <bc name="expand_torso_x_25" type="prescribed displacement" node_set="torso_column_25">
      <dof>x</dof>
      <value lc="1">-0.566329998185</value>
    </bc>
    <bc name="expand_torso_y_25" type="prescribed displacement" node_set="torso_column_25">
      <dof>y</dof>
      <value lc="1">0.198167437173</value>
    </bc>
    <bc name="expand_torso_x_26" type="prescribed displacement" node_set="torso_column_26">
      <dof>x</dof>
      <value lc="1">-0.584956747309</value>
    </bc>
    <bc name="expand_torso_y_26" type="prescribed displacement" node_set="torso_column_26">
      <dof>y</dof>
      <value lc="1">0.133512560374</value>
    </bc>
    <bc name="expand_torso_x_27" type="prescribed displacement" node_set="torso_column_27">
      <dof>x</dof>
      <value lc="1">-0.596227325936</value>
    </bc>
    <bc name="expand_torso_y_27" type="prescribed displacement" node_set="torso_column_27">
      <dof>y</dof>
      <value lc="1">0.067178685662</value>
    </bc>
    <bc name="expand_torso_x_28" type="prescribed displacement" node_set="torso_column_28">
      <dof>x</dof>
      <value lc="1">-0.6</value>
    </bc>
    <bc name="expand_torso_y_28" type="prescribed displacement" node_set="torso_column_28">
      <dof>y</dof>
      <value lc="1">7.34788079488e-17</value>
    </bc>
    <bc name="expand_torso_x_29" type="prescribed displacement" node_set="torso_column_29">
      <dof>x</dof>
      <value lc="1">-0.596227325936</value>
    </bc>
    <bc name="expand_torso_y_29" type="prescribed displacement" node_set="torso_column_29">
      <dof>y</dof>
      <value lc="1">-0.067178685662</value>
    </bc>
    <bc name="expand_torso_x_30" type="prescribed displacement" node_set="torso_column_30">
      <dof>x</dof>
      <value lc="1">-0.584956747309</value>
    </bc>
    <bc name="expand_torso_y_30" type="prescribed displacement" node_set="torso_column_30">
      <dof>y</dof>
      <value lc="1">-0.133512560374</value>
    </bc>
    <bc name="expand_torso_x_31" type="prescribed displacement" node_set="torso_column_31">
      <dof>x</dof>
      <value lc="1">-0.566329998185</value>
    </bc>
    <bc name="expand_torso_y_31" type="prescribed displacement" node_set="torso_column_31">
      <dof>y</dof>
      <value lc="1">-0.198167437173</value>
    </bc>
    <bc name="expand_torso_x_32" type="prescribed displacement" node_set="torso_column_32">
      <dof>x</dof>
      <value lc="1">-0.540581320741</value>
    </bc>
    <bc name="expand_torso_y_32" type="prescribed displacement" node_set="torso_column_32">
      <dof>y</dof>
      <value lc="1">-0.260330243471</value>
    </bc>
    <bc name="expand_torso_x_33" type="prescribed displacement" node_set="torso_column_33">
      <dof>x</dof>
      <value lc="1">-0.508034519537</value>
    </bc>
    <bc name="expand_torso_y_33" type="prescribed displacement" node_set="torso_column_33">
      <dof>y</dof>
      <value lc="1">-0.319219245909</value>
    </bc>
    <bc name="expand_torso_x_34" type="prescribed displacement" node_set="torso_column_34">
      <dof>x</dof>
      <value lc="1">-0.469098889481</value>
    </bc>
    <bc name="expand_torso_y_34" type="prescribed displacement" node_set="torso_column_34">
      <dof>y</dof>
      <value lc="1">-0.374093881115</value>
    </bc>
    <bc name="expand_torso_x_35" type="prescribed displacement" node_set="torso_column_35">
      <dof>x</dof>
      <value lc="1">-0.424264068712</value>
    </bc>
    <bc name="expand_torso_y_35" type="prescribed displacement" node_set="torso_column_35">
      <dof>y</dof>
      <value lc="1">-0.424264068712</value>
    </bc>
    <bc name="expand_torso_x_36" type="prescribed displacement" node_set="torso_column_36">
      <dof>x</dof>
      <value lc="1">-0.374093881115</value>
    </bc>
    <bc name="expand_torso_y_36" type="prescribed displacement" node_set="torso_column_36">
      <dof>y</dof>
      <value lc="1">-0.469098889481</value>
    </bc>
    <bc name="expand_torso_x_37" type="prescribed displacement" node_set="torso_column_37">
      <dof>x</dof>
      <value lc="1">-0.319219245909</value>
    </bc>
    <bc name="expand_torso_y_37" type="prescribed displacement" node_set="torso_column_37">
      <dof>y</dof>
      <value lc="1">-0.508034519537</value>
    </bc>
    <bc name="expand_torso_x_38" type="prescribed displacement" node_set="torso_column_38">
      <dof>x</dof>
      <value lc="1">-0.260330243471</value>
    </bc>
    <bc name="expand_torso_y_38" type="prescribed displacement" node_set="torso_column_38">
      <dof>y</dof>
      <value lc="1">-0.540581320741</value>
    </bc>
    <bc name="expand_torso_x_39" type="prescribed displacement" node_set="torso_column_39">
      <dof>x</dof>
      <value lc="1">-0.198167437173</value>
    </bc>
    <bc name="expand_torso_y_39" type="prescribed displacement" node_set="torso_column_39">
      <dof>y</dof>
      <value lc="1">-0.566329998185</value>
    </bc>
    <bc name="expand_torso_x_40" type="prescribed displacement" node_set="torso_column_40">
      <dof>x</dof>
      <value lc="1">-0.133512560374</value>
    </bc>
    <bc name="expand_torso_y_40" type="prescribed displacement" node_set="torso_column_40">
      <dof>y</dof>
      <value lc="1">-0.584956747309</value>
    </bc>
    <bc name="expand_torso_x_41" type="prescribed displacement" node_set="torso_column_41">
      <dof>x</dof>
      <value lc="1">-0.067178685662</value>
    </bc>
    <bc name="expand_torso_y_41" type="prescribed displacement" node_set="torso_column_41">
      <dof>y</dof>
      <value lc="1">-0.596227325936</value>
    </bc>
    <bc name="expand_torso_x_42" type="prescribed displacement" node_set="torso_column_42">
      <dof>x</dof>
      <value lc="1">-1.10218211923e-16</value>
    </bc>
    <bc name="expand_torso_y_42" type="prescribed displacement" node_set="torso_column_42">
      <dof>y</dof>
      <value lc="1">-0.6</value>
    </bc>
    <bc name="expand_torso_x_43" type="prescribed displacement" node_set="torso_column_43">
      <dof>x</dof>
      <value lc="1">0.067178685662</value>
    </bc>
    <bc name="expand_torso_y_43" type="prescribed displacement" node_set="torso_column_43">
      <dof>y</dof>
      <value lc="1">-0.596227325936</value>
    </bc>
    <bc name="expand_torso_x_44" type="prescribed displacement" node_set="torso_column_44">
      <dof>x</dof>
      <value lc="1">0.133512560374</value>
    </bc>
    <bc name="expand_torso_y_44" type="prescribed displacement" node_set="torso_column_44">
      <dof>y</dof>
      <value lc="1">-0.584956747309</value>
    </bc>
    <bc name="expand_torso_x_45" type="prescribed displacement" node_set="torso_column_45">
      <dof>x</dof>
      <value lc="1">0.198167437173</value>
    </bc>
    <bc name="expand_torso_y_45" type="prescribed displacement" node_set="torso_column_45">
      <dof>y</dof>
      <value lc="1">-0.566329998185</value>
    </bc>
    <bc name="expand_torso_x_46" type="prescribed displacement" node_set="torso_column_46">
      <dof>x</dof>
      <value lc="1">0.260330243471</value>
    </bc>
    <bc name="expand_torso_y_46" type="prescribed displacement" node_set="torso_column_46">
      <dof>y</dof>
      <value lc="1">-0.540581320741</value>
    </bc>
    <bc name="expand_torso_x_47" type="prescribed displacement" node_set="torso_column_47">
      <dof>x</dof>
      <value lc="1">0.319219245909</value>
    </bc>
    <bc name="expand_torso_y_47" type="prescribed displacement" node_set="torso_column_47">
      <dof>y</dof>
      <value lc="1">-0.508034519537</value>
    </bc>
    <bc name="expand_torso_x_48" type="prescribed displacement" node_set="torso_column_48">
      <dof>x</dof>
      <value lc="1">0.374093881115</value>
    </bc>
    <bc name="expand_torso_y_48" type="prescribed displacement" node_set="torso_column_48">
      <dof>y</dof>
      <value lc="1">-0.469098889481</value>
    </bc>
    <bc name="expand_torso_x_49" type="prescribed displacement" node_set="torso_column_49">
      <dof>x</dof>
      <value lc="1">0.424264068712</value>
    </bc>
    <bc name="expand_torso_y_49" type="prescribed displacement" node_set="torso_column_49">
      <dof>y</dof>
      <value lc="1">-0.424264068712</value>
    </bc>
    <bc name="expand_torso_x_50" type="prescribed displacement" node_set="torso_column_50">
      <dof>x</dof>
      <value lc="1">0.469098889481</value>
    </bc>
    <bc name="expand_torso_y_50" type="prescribed displacement" node_set="torso_column_50">
      <dof>y</dof>
      <value lc="1">-0.374093881115</value>
    </bc>
    <bc name="expand_torso_x_51" type="prescribed displacement" node_set="torso_column_51">
      <dof>x</dof>
      <value lc="1">0.508034519537</value>
    </bc>
    <bc name="expand_torso_y_51" type="prescribed displacement" node_set="torso_column_51">
      <dof>y</dof>
      <value lc="1">-0.319219245909</value>
    </bc>
    <bc name="expand_torso_x_52" type="prescribed displacement" node_set="torso_column_52">
      <dof>x</dof>
      <value lc="1">0.540581320741</value>
    </bc>
    <bc name="expand_torso_y_52" type="prescribed displacement" node_set="torso_column_52">
      <dof>y</dof>
      <value lc="1">-0.260330243471</value>
    </bc>
    <bc name="expand_torso_x_53" type="prescribed displacement" node_set="torso_column_53">
      <dof>x</dof>
      <value lc="1">0.566329998185</value>
    </bc>
    <bc name="expand_torso_y_53" type="prescribed displacement" node_set="torso_column_53">
      <dof>y</dof>
      <value lc="1">-0.198167437173</value>
    </bc>
    <bc name="expand_torso_x_54" type="prescribed displacement" node_set="torso_column_54">
      <dof>x</dof>
      <value lc="1">0.584956747309</value>
    </bc>
    <bc name="expand_torso_y_54" type="prescribed displacement" node_set="torso_column_54">
      <dof>y</dof>
      <value lc="1">-0.133512560374</value>
    </bc>
    <bc name="expand_torso_x_55" type="prescribed displacement" node_set="torso_column_55">
      <dof>x</dof>
      <value lc="1">0.596227325936</value>
    </bc>
    <bc name="expand_torso_y_55" type="prescribed displacement" node_set="torso_column_55">
      <dof>y</dof>
      <value lc="1">-0.067178685662</value>
    </bc>
  </Boundary>
  <LoadData>
    <load_controller id="1" type="loadcurve">
      <interpolate>LINEAR</interpolate>
      <points>
        <pt>0,0</pt>
        <pt>0.5,1</pt>
        <pt>1,1</pt>
      </points>
    </load_controller>
    <load_controller id="2" type="loadcurve">
      <interpolate>LINEAR</interpolate>
      <points>
        <pt>0,0</pt>
        <pt>0.5,0</pt>
        <pt>1,1</pt>
      </points>
    </load_controller>
  </LoadData>
  <Output>
    <plotfile type="febio" file="results/matched_no_contact_0p6_coarse56_movement025.xplt">
      <var type="displacement" />
      <var type="stress" />
      <var type="Lagrange strain" />
      <var type="shell thickness" />
    </plotfile>
    <logfile file="results/matched_no_contact_0p6_coarse56_movement025.log">
      <node_data data="x;y;z" name="shirt_final_coordinates" node_set="shirt_all_nodes" delim="," />
    </logfile>
  </Output>
</febio_spec>