<?xml version='1.0' encoding='utf-8'?>
<febio_spec version="4.0">
  <Module type="solid" />
  <Control>
    <analysis>STATIC</analysis>
    <time_steps>60</time_steps>
    <step_size>0.0166666666667</step_size>
    <plot_level>PLOT_MUST_POINTS</plot_level>
    <solver type="solid">
      <max_refs>25</max_refs>
      <diverge_reform>1</diverge_reform>
      <reform_each_time_step>1</reform_each_time_step>
      <dtol>0.001</dtol>
      <etol>0.01</etol>
      <rtol>0</rtol>
    </solver>
    <time_stepper>
      <dtmin>0.0001</dtmin>
      <dtmax>0.02</dtmax>
      <max_retries>12</max_retries>
      <opt_iter>10</opt_iter>
    </time_stepper>
  </Control>
  <Material>
    <material id="1" name="nylon" type="neo-Hookean">
      <E>0.24</E>
      <v>0.35</v>
    </material>
    <material id="2" name="backing_tpu" type="neo-Hookean">
      <E>48.4</E>
      <v>0.45</v>
    </material>
    <material id="3" name="conductive_tpu" type="neo-Hookean">
      <E>45</E>
      <v>0.45</v>
    </material>
  </Material>
  <Mesh>
    <Nodes name="coupon_nodes">
      <node id="1">0,0,0</node>
      <node id="2">7.5,0,0</node>
      <node id="3">7.5,5,0</node>
      <node id="4">0,5,0</node>
      <node id="5">0,0,0.4</node>
      <node id="6">7.5,0,0.4</node>
      <node id="7">7.5,5,0.4</node>
      <node id="8">0,5,0.4</node>
      <node id="9">15,0,0</node>
      <node id="10">15,5,0</node>
      <node id="11">15,0,0.4</node>
      <node id="12">15,5,0.4</node>
      <node id="13">17.5,0,0</node>
      <node id="14">17.5,5,0</node>
      <node id="15">17.5,0,0.4</node>
      <node id="16">17.5,5,0.4</node>
      <node id="17">20,0,0</node>
      <node id="18">20,5,0</node>
      <node id="19">20,0,0.4</node>
      <node id="20">20,5,0.4</node>
<!-- ... 2022 like lines cut -->
    </Nodes>
    <Elements type="hex8" name="nylon_substrate">
      <elem id="1">1,2,3,4,5,6,7,8</elem>
      <elem id="2">2,9,10,3,6,11,12,7</elem>
      <elem id="3">9,13,14,10,11,15,16,12</elem>
      <elem id="4">13,17,18,14,15,19,20,16</elem>
      <elem id="5">17,21,22,18,19,23,24,20</elem>
      <elem id="6">21,25,26,22,23,27,28,24</elem>
      <elem id="7">25,29,30,26,27,31,32,28</elem>
      <elem id="8">29,33,34,30,31,35,36,32</elem>
      <elem id="9">33,37,38,34,35,39,40,36</elem>
      <elem id="10">37,41,42,38,39,43,44,40</elem>
      <elem id="11">41,45,46,42,43,47,48,44</elem>
      <elem id="12">45,49,50,46,47,51,52,48</elem>
      <elem id="13">49,53,54,50,51,55,56,52</elem>
      <elem id="14">53,57,58,54,55,59,60,56</elem>
      <elem id="15">57,61,62,58,59,63,64,60</elem>
      <elem id="16">61,65,66,62,63,67,68,64</elem>
      <elem id="17">65,69,70,66,67,71,72,68</elem>
      <elem id="18">69,73,74,70,71,75,76,72</elem>
      <elem id="19">73,77,78,74,75,79,80,76</elem>
      <elem id="20">77,81,82,78,79,83,84,80</elem>
<!-- ... 1156 like lines cut -->
    </Elements>
    <Elements type="hex8" name="tpu_backing">
      <elem id="1177">1413,1414,1436,1435,1651,1652,1653,1654</elem>
      <elem id="1178">1414,1415,1437,1436,1652,1655,1656,1653</elem>
      <elem id="1179">1415,1416,1438,1437,1655,1657,1658,1656</elem>
      <elem id="1180">1416,1417,1439,1438,1657,1659,1660,1658</elem>
      <elem id="1181">1417,1418,1440,1439,1659,1661,1662,1660</elem>
      <elem id="1182">1418,1419,1441,1440,1661,1663,1664,1662</elem>
      <elem id="1183">1419,1420,1442,1441,1663,1665,1666,1664</elem>
      <elem id="1184">1420,1421,1443,1442,1665,1667,1668,1666</elem>
      <elem id="1185">1421,1422,1444,1443,1667,1669,1670,1668</elem>
      <elem id="1186">1422,1423,1445,1444,1669,1671,1672,1670</elem>
      <elem id="1187">1423,1424,1446,1445,1671,1673,1674,1672</elem>
      <elem id="1188">1424,1425,1447,1446,1673,1675,1676,1674</elem>
      <elem id="1189">1425,1426,1448,1447,1675,1677,1678,1676</elem>
      <elem id="1190">1435,1436,1458,1457,1654,1653,1679,1680</elem>
      <elem id="1191">1436,1437,1459,1458,1653,1656,1681,1679</elem>
      <elem id="1192">1437,1438,1460,1459,1656,1658,1682,1681</elem>
      <elem id="1193">1438,1439,1461,1460,1658,1660,1683,1682</elem>
      <elem id="1194">1439,1440,1462,1461,1660,1662,1684,1683</elem>
      <elem id="1195">1440,1441,1463,1462,1662,1664,1685,1684</elem>
      <elem id="1196">1441,1442,1464,1463,1664,1666,1686,1685</elem>
<!-- ... 136 like lines cut -->
    </Elements>
    <Elements type="hex8" name="conductive_tpu">
      <elem id="1333">1749,1750,1751,1752,1847,1848,1849,1850</elem>
      <elem id="1334">1750,1753,1754,1751,1848,1851,1852,1849</elem>
      <elem id="1335">1753,1755,1756,1754,1851,1853,1854,1852</elem>
      <elem id="1336">1755,1757,1758,1756,1853,1855,1856,1854</elem>
      <elem id="1337">1757,1759,1760,1758,1855,1857,1858,1856</elem>
      <elem id="1338">1759,1761,1762,1760,1857,1859,1860,1858</elem>
      <elem id="1339">1761,1763,1764,1762,1859,1861,1862,1860</elem>
      <elem id="1340">1763,1765,1766,1764,1861,1863,1864,1862</elem>
      <elem id="1341">1765,1767,1768,1766,1863,1865,1866,1864</elem>
      <elem id="1342">1767,1769,1770,1768,1865,1867,1868,1866</elem>
      <elem id="1343">1769,1771,1772,1770,1867,1869,1870,1868</elem>
      <elem id="1344">1771,1773,1774,1772,1869,1871,1872,1870</elem>
      <elem id="1345">1773,1775,1776,1774,1871,1873,1874,1872</elem>
      <elem id="1346">1752,1751,1777,1778,1850,1849,1875,1876</elem>
      <elem id="1347">1751,1754,1779,1777,1849,1852,1877,1875</elem>
      <elem id="1348">1754,1756,1780,1779,1852,1854,1878,1877</elem>
      <elem id="1349">1756,1758,1781,1780,1854,1856,1879,1878</elem>
      <elem id="1350">1758,1760,1782,1781,1856,1858,1880,1879</elem>
      <elem id="1351">1760,1762,1783,1782,1858,1860,1881,1880</elem>
      <elem id="1352">1762,1764,1784,1783,1860,1862,1882,1881</elem>
<!-- ... 136 like lines cut -->
    </Elements>
    <NodeSet name="conductive_gauge_nodes">1749,1750,1751,1752,1753,1754,1755,1756,1757,1758,1759,1760,1761,1762,1763,1764,1765,1766,1767,1768,1769,1770,1771,1772,1773,1774,1775,1776,1777,1778,1779,1780,1781,1782,1783,1784,1785,1786,1787,1788,1789,1790,1791,1792,1793,1794,1795,1796,1797,1798,1799,1800,1801,1802,1803,1804,1805,1806,1807,1808,1809,1810,1811,1812,1813,1814,1815,1816,1817,1818,1819,18
    <NodeSet name="fixed_end">1,4,5,8,90,92,134,136,178,180,222,224,266,268,310,312,354,356,398,400,442,444,486,488,530,532,574,576,618,620,661,664,706,728,750,772,794,816,838,860,882,904,926,948,970,991,994,1036,1058,1080,1102,1124,1146,1168,1190,1212,1234,1256,1278,1300,1321,1324,1366,1388,1410,1432,1454,1476,1498,1520,1542,1564,1586,1608,1630</NodeSet>
    <NodeSet name="loaded_end">85,86,87,88,131,132,175,176,219,220,263,264,307,308,351,352,395,396,439,440,483,484,527,528,571,572,615,616,659,660,703,704,726,748,770,792,814,836,858,880,902,924,946,968,990,1033,1034,1056,1078,1100,1122,1144,1166,1188,1210,1232,1254,1276,1298,1320,1363,1364,1386,1408,1430,1452,1474,1496,1518,1540,1562,1584,1606,1628,1650</NodeSet>
  </Mesh>
  <MeshDomains>
    <SolidDomain name="nylon_substrate" mat="nylon" />
    <SolidDomain name="tpu_backing" mat="backing_tpu" />
    <SolidDomain name="conductive_tpu" mat="conductive_tpu" />
  </MeshDomains>
  <Boundary>
    <bc name="clamped_left" type="zero displacement" node_set="fixed_end">
      <x_dof>1</x_dof>
      <y_dof>1</y_dof>
      <z_dof>1</z_dof>
    </bc>
    <bc name="thirty_percent_extension" type="prescribed displacement" node_set="loaded_end">
      <dof>x</dof>
      <value lc="1">36</value>
      <relative>0</relative>
    </bc>
  </Boundary>
  <LoadData>
    <load_controller id="1" type="loadcurve">
      <interpolate>LINEAR</interpolate>
      <points>
        <point>0,0</point>
        <point>1,1</point>
      </points>
    </load_controller>
  </LoadData>
  <Output>
    <plotfile type="febio" file="results/taper_mesh_10mm_tip25pct_local_coarse.xplt">
      <var type="displacement" />
      <var type="Lagrange strain" />
      <var type="stress" />
    </plotfile>
    <logfile file="results/taper_mesh_10mm_tip25pct_local_coarse.log">
      <node_data data="x;y;z" name="conductive_gauge_coordinates" node_set="conductive_gauge_nodes" delim="," />
    </logfile>
  </Output>
</febio_spec>